Material: main / GeS2 / Slavich-beta
Optical constants. A. S. Slavich, G. A. Ermolaev, I. A. Zavidovskiy, D. V. Grudinin, K. V. Kravtsov, M. K. Tatmyshevskiy, M. S. Mironov, A. N. Toksumakov, G. I. Tselikov, I. M. Fradkin, K. V. Voronin, M. R. Povolotskiy, O. G. Matveeva, A. V. Syuy, D. I. Yakubovsky, D. M. Tsymbarenko, I. Kruglov, D. A. Ghazaryan, S. M. Novikov, A. A. Vyshnevyy, A. V. Arsenin, V. S. Volkov, K. S. Novoselov. Germanium disulfide as an alternative high refractive index and transparent material for UV-visible nanophotonics. Light Sci. Appl., 14, 213 (2025) (Numerical data kindly provided by Dr. Georgy Ermolaev)
Comments: n(β),k(β). Experimental data.
Conditions: {"direction": "beta"}
wavelength (um)	n	k
0.250	1.90430	1.45366
0.254	2.01293	1.51827
0.258	2.13784	1.57222
0.262	2.27885	1.61071
0.266	2.43418	1.62809
0.270	2.59969	1.61841
0.274	2.76829	1.57664
0.278	2.93020	1.50042
0.282	3.07433	1.39166
0.286	3.19084	1.25719
0.290	3.27373	1.10748
0.294	3.32207	0.95402
0.298	3.33942	0.80660
0.302	3.33193	0.67188
0.306	3.30637	0.55319
0.310	3.26887	0.45130
0.314	3.22432	0.36538
0.318	3.17631	0.29378
0.322	3.12731	0.23460
0.326	3.07894	0.18593
0.330	3.03220	0.14607
0.334	2.98769	0.11355
0.338	2.94569	0.08711
0.342	2.90634	0.06573
0.346	2.86964	0.04854
0.350	2.83552	0.03486
0.354	2.80389	0.02412
0.358	2.77464	0.01583
0.362	2.74765	0.00963
0.366	2.72282	0.00518
0.370	2.70005	0.00224
0.374	2.67929	5.72E-4
0.378	2.66057	3.00E-6
0.382	2.64412	0
0.386	2.62936	0
0.390	2.61592	0
0.394	2.60358	0
0.398	2.59219	0
0.402	2.58162	0
0.406	2.57178	0
0.410	2.56259	0
0.414	2.55398	0
0.418	2.54590	0
0.422	2.53830	0
0.426	2.53112	0
0.430	2.52434	0
0.434	2.51793	0
0.438	2.51185	0
0.442	2.50607	0
0.446	2.50058	0
0.450	2.49536	0
0.454	2.49037	0
0.458	2.48562	0
0.462	2.48108	0
0.466	2.47674	0
0.470	2.47259	0
0.474	2.46861	0
0.478	2.46479	0
0.482	2.46113	0
0.486	2.45761	0
0.490	2.45423	0
0.494	2.45098	0
0.498	2.44785	0
0.502	2.44483	0
0.506	2.44193	0
0.510	2.43913	0
0.514	2.43643	0
0.518	2.43382	0
0.522	2.43130	0
0.526	2.42886	0
0.530	2.42651	0
0.534	2.42423	0
0.538	2.42202	0
0.542	2.41988	0
0.546	2.41781	0
0.550	2.41581	0
0.554	2.41386	0
0.558	2.41198	0
0.562	2.41015	0
0.566	2.40837	0
0.570	2.40664	0
0.574	2.40496	0
0.578	2.40334	0
0.582	2.40175	0
0.586	2.40021	0
0.590	2.39871	0
0.594	2.39725	0
0.598	2.39583	0
0.602	2.39445	0
0.606	2.39310	0
0.610	2.39179	0
0.614	2.39051	0
0.618	2.38927	0
0.622	2.38805	0
0.626	2.38687	0
0.630	2.38571	0
0.634	2.38458	0
0.638	2.38348	0
0.642	2.38241	0
0.646	2.38136	0
0.650	2.38033	0
0.654	2.37933	0
0.658	2.37835	0
0.662	2.37739	0
0.666	2.37646	0
0.670	2.37554	0
0.674	2.37465	0
0.678	2.37378	0
0.682	2.37292	0
0.686	2.37208	0
0.690	2.37126	0
0.694	2.37046	0
0.698	2.36968	0
0.702	2.36891	0
0.706	2.36815	0
0.710	2.36741	0
0.714	2.36669	0
0.718	2.36598	0
0.722	2.36529	0
0.726	2.36461	0
0.730	2.36394	0
0.734	2.36329	0
0.738	2.36265	0
0.742	2.36202	0
0.746	2.36140	0
0.750	2.36079	0
0.754	2.36020	0
0.758	2.35962	0
0.762	2.35905	0
0.766	2.35848	0
0.770	2.35793	0
0.774	2.35739	0
0.778	2.35686	0
0.782	2.35634	0
0.786	2.35582	0
0.790	2.35532	0
0.794	2.35482	0
0.798	2.35434	0
0.802	2.35386	0
0.806	2.35339	0
0.810	2.35293	0
0.814	2.35248	0
0.818	2.35203	0
0.822	2.35159	0
0.826	2.35116	0
0.830	2.35073	0
0.834	2.35032	0
0.838	2.34991	0
0.842	2.34950	0
0.846	2.34911	0
0.850	2.34871	0
0.854	2.34833	0
0.858	2.34795	0
0.862	2.34758	0
0.866	2.34721	0
0.870	2.34685	0
0.874	2.34650	0
0.878	2.34614	0
0.882	2.34580	0
0.886	2.34546	0
0.890	2.34513	0
0.894	2.34480	0
0.898	2.34447	0
0.902	2.34415	0
0.906	2.34384	0
0.910	2.34353	0
0.914	2.34322	0
0.918	2.34292	0
0.922	2.34263	0
0.926	2.34233	0
0.930	2.34205	0
0.934	2.34176	0
0.938	2.34148	0
0.942	2.34120	0
0.946	2.34093	0
0.950	2.34066	0
0.954	2.34040	0
0.958	2.34014	0
0.962	2.33988	0
0.966	2.33963	0
0.970	2.33938	0
0.974	2.33913	0
0.978	2.33888	0
0.982	2.33864	0
0.986	2.33841	0
0.990	2.33817	0
0.994	2.33794	0
0.998	2.33771	0
1.002	2.33749	0
1.006	2.33727	0
1.010	2.33705	0
1.014	2.33683	0
1.018	2.33662	0
1.022	2.33641	0
1.026	2.33620	0
1.030	2.33599	0
1.034	2.33579	0
1.038	2.33559	0
1.042	2.33539	0
1.046	2.33520	0
1.050	2.33500	0
1.054	2.33481	0
1.058	2.33462	0
1.062	2.33444	0
1.066	2.33426	0
1.070	2.33407	0
1.074	2.33389	0
1.078	2.33372	0
1.082	2.33354	0
1.086	2.33337	0
1.090	2.33320	0
1.094	2.33303	0
1.098	2.33286	0
1.102	2.33270	0
1.106	2.33254	0
1.110	2.33237	0
1.114	2.33221	0
1.118	2.33206	0
1.122	2.33190	0
1.126	2.33175	0
1.130	2.33160	0
1.134	2.33145	0
1.138	2.33130	0
1.142	2.33115	0
1.146	2.33100	0
1.150	2.33086	0
1.154	2.33072	0
1.158	2.33058	0
1.162	2.33044	0
1.166	2.33030	0
1.170	2.33017	0
1.174	2.33003	0
1.178	2.32990	0
1.182	2.32977	0
1.186	2.32964	0
1.190	2.32951	0
1.194	2.32938	0
1.198	2.32925	0
1.202	2.32913	0
1.206	2.32901	0
1.210	2.32889	0
1.214	2.32876	0
1.218	2.32864	0
1.222	2.32853	0
1.226	2.32841	0
1.230	2.32829	0
1.234	2.32818	0
1.238	2.32807	0
1.242	2.32795	0
1.246	2.32784	0
1.250	2.32773	0
1.254	2.32762	0
1.258	2.32752	0
1.262	2.32741	0
1.266	2.32730	0
1.270	2.32720	0
1.274	2.32709	0
1.278	2.32699	0
1.282	2.32689	0
1.286	2.32679	0
1.290	2.32669	0
1.294	2.32659	0
1.298	2.32649	0
1.302	2.32640	0
1.306	2.32630	0
1.310	2.32621	0
1.314	2.32611	0
1.318	2.32602	0
1.322	2.32593	0
1.326	2.32584	0
1.330	2.32575	0
1.334	2.32566	0
1.338	2.32557	0
1.342	2.32548	0
1.346	2.32539	0
1.350	2.32531	0
1.354	2.32522	0
1.358	2.32514	0
1.362	2.32505	0
1.366	2.32497	0
1.370	2.32489	0
1.374	2.32481	0
1.378	2.32473	0
1.382	2.32465	0
1.386	2.32457	0
1.390	2.32449	0
1.394	2.32441	0
1.398	2.32433	0
1.402	2.32426	0
1.406	2.32418	0
1.410	2.32411	0
1.414	2.32403	0
1.418	2.32396	0
1.422	2.32388	0
1.426	2.32381	0
1.430	2.32374	0
1.434	2.32367	0
1.438	2.32360	0
1.442	2.32353	0
1.446	2.32346	0
1.450	2.32339	0
1.454	2.32332	0
1.458	2.32325	0
1.462	2.32319	0
1.466	2.32312	0
1.470	2.32306	0
1.474	2.32299	0
1.478	2.32292	0
1.482	2.32286	0
1.486	2.32280	0
1.490	2.32273	0
1.494	2.32267	0
1.498	2.32261	0
1.502	2.32255	0
1.506	2.32248	0
1.510	2.32243	0
1.514	2.32237	0
1.518	2.32231	0
1.522	2.32225	0
1.526	2.32219	0
1.530	2.32213	0
1.534	2.32207	0
1.538	2.32201	0
1.542	2.32196	0
1.546	2.32190	0
1.550	2.32185	0
1.554	2.32179	0
1.558	2.32173	0
1.562	2.32168	0
1.566	2.32163	0
1.570	2.32157	0
1.574	2.32152	0
1.578	2.32147	0
1.582	2.32141	0
1.586	2.32136	0
1.590	2.32131	0
1.594	2.32126	0
1.598	2.32121	0
1.602	2.32116	0
1.606	2.32111	0
1.610	2.32106	0
1.614	2.32101	0
1.618	2.32096	0
1.622	2.32091	0
1.626	2.32086	0
1.630	2.32082	0
1.634	2.32077	0
1.638	2.32072	0
1.642	2.32068	0
1.646	2.32063	0
1.650	2.32058	0
1.654	2.32054	0
1.658	2.32049	0
1.662	2.32045	0
1.666	2.32040	0
1.670	2.32036	0
1.674	2.32031	0
1.678	2.32027	0
1.682	2.32023	0
1.686	2.32018	0
1.690	2.32014	0
1.694	2.32010	0
1.698	2.32006	0
