Material: main / GeS2 / Slavich-alpha
Optical constants. A. S. Slavich, G. A. Ermolaev, I. A. Zavidovskiy, D. V. Grudinin, K. V. Kravtsov, M. K. Tatmyshevskiy, M. S. Mironov, A. N. Toksumakov, G. I. Tselikov, I. M. Fradkin, K. V. Voronin, M. R. Povolotskiy, O. G. Matveeva, A. V. Syuy, D. I. Yakubovsky, D. M. Tsymbarenko, I. Kruglov, D. A. Ghazaryan, S. M. Novikov, A. A. Vyshnevyy, A. V. Arsenin, V. S. Volkov, K. S. Novoselov. Germanium disulfide as an alternative high refractive index and transparent material for UV-visible nanophotonics. Light Sci. Appl., 14, 213 (2025) (Numerical data kindly provided by Dr. Georgy Ermolaev)
Comments: n(α),k(α). Experimental data.
wavelength (um)	n	k
0.250	1.98321	1.22553
0.254	2.07061	1.26087
0.258	2.16677	1.28699
0.262	2.27076	1.30138
0.266	2.38084	1.30147
0.270	2.49427	1.28489
0.274	2.60729	1.24994
0.278	2.71534	1.19611
0.282	2.81352	1.12446
0.286	2.89740	1.03781
0.290	2.96369	0.94041
0.294	3.01083	0.83729
0.298	3.03908	0.73347
0.302	3.05018	0.63322
0.306	3.04682	0.53965
0.310	3.03205	0.45468
0.314	3.00885	0.37917
0.318	2.97981	0.31317
0.322	2.94709	0.25624
0.326	2.91235	0.20764
0.330	2.87685	0.16651
0.334	2.84148	0.13195
0.338	2.80689	0.10312
0.342	2.77348	0.07925
0.346	2.74154	0.05966
0.350	2.71124	0.04374
0.354	2.68266	0.03099
0.358	2.65585	0.02095
0.362	2.63082	0.01325
0.366	2.60757	0.00758
0.370	2.58608	0.00364
0.374	2.56637	0.00123
0.378	2.54850	1.17E-4
0.382	2.53277	0
0.386	2.51894	0
0.390	2.50646	0
0.394	2.49507	0
0.398	2.48460	0
0.402	2.47492	0
0.406	2.46593	0
0.410	2.45755	0
0.414	2.44972	0
0.418	2.44238	0
0.422	2.43547	0
0.426	2.42897	0
0.430	2.42284	0
0.434	2.41703	0
0.438	2.41154	0
0.442	2.40632	0
0.446	2.40137	0
0.450	2.39665	0
0.454	2.39216	0
0.458	2.38788	0
0.462	2.38379	0
0.466	2.37988	0
0.470	2.37614	0
0.474	2.37256	0
0.478	2.36912	0
0.482	2.36583	0
0.486	2.36267	0
0.490	2.35963	0
0.494	2.35671	0
0.498	2.35389	0
0.502	2.35119	0
0.506	2.34857	0
0.510	2.34606	0
0.514	2.34363	0
0.518	2.34129	0
0.522	2.33902	0
0.526	2.33684	0
0.530	2.33472	0
0.534	2.33268	0
0.538	2.33069	0
0.542	2.32878	0
0.546	2.32692	0
0.550	2.32512	0
0.554	2.32337	0
0.558	2.32168	0
0.562	2.32004	0
0.566	2.31844	0
0.570	2.31689	0
0.574	2.31539	0
0.578	2.31392	0
0.582	2.31250	0
0.586	2.31112	0
0.590	2.30978	0
0.594	2.30847	0
0.598	2.30719	0
0.602	2.30595	0
0.606	2.30475	0
0.610	2.30357	0
0.614	2.30242	0
0.618	2.30130	0
0.622	2.30021	0
0.626	2.29915	0
0.630	2.29811	0
0.634	2.29710	0
0.638	2.29611	0
0.642	2.29515	0
0.646	2.29420	0
0.650	2.29329	0
0.654	2.29239	0
0.658	2.29151	0
0.662	2.29065	0
0.666	2.28981	0
0.670	2.28899	0
0.674	2.28819	0
0.678	2.28740	0
0.682	2.28664	0
0.686	2.28588	0
0.690	2.28515	0
0.694	2.28443	0
0.698	2.28372	0
0.702	2.28303	0
0.706	2.28236	0
0.710	2.28170	0
0.714	2.28105	0
0.718	2.28041	0
0.722	2.27979	0
0.726	2.27918	0
0.730	2.27858	0
0.734	2.27799	0
0.738	2.27742	0
0.742	2.27685	0
0.746	2.27630	0
0.750	2.27576	0
0.754	2.27522	0
0.758	2.27470	0
0.762	2.27419	0
0.766	2.27368	0
0.770	2.27319	0
0.774	2.27270	0
0.778	2.27222	0
0.782	2.27176	0
0.786	2.27129	0
0.790	2.27084	0
0.794	2.27040	0
0.798	2.26996	0
0.802	2.26953	0
0.806	2.26911	0
0.810	2.26870	0
0.814	2.26829	0
0.818	2.26789	0
0.822	2.26749	0
0.826	2.26711	0
0.830	2.26673	0
0.834	2.26635	0
0.838	2.26598	0
0.842	2.26562	0
0.846	2.26526	0
0.850	2.26491	0
0.854	2.26457	0
0.858	2.26423	0
0.862	2.26390	0
0.866	2.26357	0
0.870	2.26324	0
0.874	2.26292	0
0.878	2.26261	0
0.882	2.26230	0
0.886	2.26199	0
0.890	2.26169	0
0.894	2.26140	0
0.898	2.26111	0
0.902	2.26082	0
0.906	2.26054	0
0.910	2.26026	0
0.914	2.25999	0
0.918	2.25971	0
0.922	2.25945	0
0.926	2.25919	0
0.930	2.25893	0
0.934	2.25867	0
0.938	2.25842	0
0.942	2.25817	0
0.946	2.25793	0
0.950	2.25769	0
0.954	2.25745	0
0.958	2.25722	0
0.962	2.25698	0
0.966	2.25676	0
0.970	2.25653	0
0.974	2.25631	0
0.978	2.25609	0
0.982	2.25588	0
0.986	2.25566	0
0.990	2.25545	0
0.994	2.25524	0
0.998	2.25504	0
1.002	2.25484	0
1.006	2.25464	0
1.010	2.25444	0
1.014	2.25425	0
1.018	2.25406	0
1.022	2.25387	0
1.026	2.25368	0
1.030	2.25350	0
1.034	2.25331	0
1.038	2.25313	0
1.042	2.25296	0
1.046	2.25278	0
1.050	2.25261	0
1.054	2.25244	0
1.058	2.25227	0
1.062	2.25210	0
1.066	2.25193	0
1.070	2.25177	0
1.074	2.25161	0
1.078	2.25145	0
1.082	2.25129	0
1.086	2.25114	0
1.090	2.25099	0
1.094	2.25083	0
1.098	2.25068	0
1.102	2.25054	0
1.106	2.25039	0
1.110	2.25025	0
1.114	2.25010	0
1.118	2.24996	0
1.122	2.24982	0
1.126	2.24968	0
1.130	2.24955	0
1.134	2.24941	0
1.138	2.24928	0
1.142	2.24915	0
1.146	2.24902	0
1.150	2.24889	0
1.154	2.24876	0
1.158	2.24863	0
1.162	2.24851	0
1.166	2.24838	0
1.170	2.24826	0
1.174	2.24814	0
1.178	2.24802	0
1.182	2.24790	0
1.186	2.24779	0
1.190	2.24767	0
1.194	2.24756	0
1.198	2.24744	0
1.202	2.24733	0
1.206	2.24722	0
1.210	2.24711	0
1.214	2.24700	0
1.218	2.24690	0
1.222	2.24679	0
1.226	2.24668	0
1.230	2.24658	0
1.234	2.24648	0
1.238	2.24638	0
1.242	2.24627	0
1.246	2.24618	0
1.250	2.24608	0
1.254	2.24598	0
1.258	2.24588	0
1.262	2.24579	0
1.266	2.24569	0
1.270	2.24560	0
1.274	2.24551	0
1.278	2.24541	0
1.282	2.24532	0
1.286	2.24523	0
1.290	2.24514	0
1.294	2.24505	0
1.298	2.24497	0
1.302	2.24488	0
1.306	2.24479	0
1.310	2.24471	0
1.314	2.24462	0
1.318	2.24454	0
1.322	2.24446	0
1.326	2.24437	0
1.330	2.24429	0
1.334	2.24421	0
1.338	2.24413	0
1.342	2.24405	0
1.346	2.24398	0
1.350	2.24390	0
1.354	2.24382	0
1.358	2.24375	0
1.362	2.24367	0
1.366	2.24360	0
1.370	2.24352	0
1.374	2.24345	0
1.378	2.24338	0
1.382	2.24331	0
1.386	2.24323	0
1.390	2.24316	0
1.394	2.24309	0
1.398	2.24302	0
1.402	2.24296	0
1.406	2.24289	0
1.410	2.24282	0
1.414	2.24275	0
1.418	2.24269	0
1.422	2.24262	0
1.426	2.24256	0
1.430	2.24249	0
1.434	2.24243	0
1.438	2.24236	0
1.442	2.24230	0
1.446	2.24224	0
1.450	2.24218	0
1.454	2.24212	0
1.458	2.24206	0
1.462	2.24200	0
1.466	2.24193	0
1.470	2.24188	0
1.474	2.24182	0
1.478	2.24176	0
1.482	2.24170	0
1.486	2.24164	0
1.490	2.24159	0
1.494	2.24153	0
1.498	2.24147	0
1.502	2.24142	0
1.506	2.24137	0
1.510	2.24131	0
1.514	2.24126	0
1.518	2.24120	0
1.522	2.24115	0
1.526	2.24110	0
1.530	2.24105	0
1.534	2.24099	0
1.538	2.24094	0
1.542	2.24089	0
1.546	2.24084	0
1.550	2.24079	0
1.554	2.24074	0
1.558	2.24069	0
1.562	2.24064	0
1.566	2.24059	0
1.570	2.24055	0
1.574	2.24050	0
1.578	2.24045	0
1.582	2.24040	0
1.586	2.24036	0
1.590	2.24031	0
1.594	2.24026	0
1.598	2.24022	0
1.602	2.24017	0
1.606	2.24013	0
1.610	2.24008	0
1.614	2.24004	0
1.618	2.24000	0
1.622	2.23995	0
1.626	2.23991	0
1.630	2.23987	0
1.634	2.23982	0
1.638	2.23978	0
1.642	2.23974	0
1.646	2.23970	0
1.650	2.23966	0
1.654	2.23961	0
1.658	2.23957	0
1.662	2.23953	0
1.666	2.23949	0
1.670	2.23945	0
1.674	2.23941	0
1.678	2.23937	0
1.682	2.23934	0
1.686	2.23930	0
1.690	2.23926	0
1.694	2.23922	0
1.698	2.23918	0
