Material: main / GeS2 / Slavich-gamma
Optical constants. A. S. Slavich, G. A. Ermolaev, I. A. Zavidovskiy, D. V. Grudinin, K. V. Kravtsov, M. K. Tatmyshevskiy, M. S. Mironov, A. N. Toksumakov, G. I. Tselikov, I. M. Fradkin, K. V. Voronin, M. R. Povolotskiy, O. G. Matveeva, A. V. Syuy, D. I. Yakubovsky, D. M. Tsymbarenko, I. Kruglov, D. A. Ghazaryan, S. M. Novikov, A. A. Vyshnevyy, A. V. Arsenin, V. S. Volkov, K. S. Novoselov. Germanium disulfide as an alternative high refractive index and transparent material for UV-visible nanophotonics. Light Sci. Appl., 14, 213 (2025) (Numerical data kindly provided by Dr. Georgy Ermolaev)
Comments: n(Î³). Experimental data.
Conditions: {"direction": "gamma"}
wavelength (um)	n
0.250	2.32937
0.254	2.31621
0.258	2.30365
0.262	2.29167
0.266	2.28022
0.270	2.26927
0.274	2.25881
0.278	2.24879
0.282	2.23919
0.286	2.23000
0.290	2.22118
0.294	2.21272
0.298	2.20459
0.302	2.19679
0.306	2.18929
0.310	2.18208
0.314	2.17515
0.318	2.16847
0.322	2.16204
0.326	2.15585
0.330	2.14988
0.334	2.14412
0.338	2.13857
0.342	2.13321
0.346	2.12804
0.350	2.12304
0.354	2.11821
0.358	2.11354
0.362	2.10902
0.366	2.10466
0.370	2.10043
0.374	2.09634
0.378	2.09238
0.382	2.08854
0.386	2.08482
0.390	2.08121
0.394	2.07771
0.398	2.07432
0.402	2.07103
0.406	2.06784
0.410	2.06473
0.414	2.06172
0.418	2.05880
0.422	2.05595
0.426	2.05319
0.430	2.05050
0.434	2.04789
0.438	2.04535
0.442	2.04288
0.446	2.04047
0.450	2.03813
0.454	2.03585
0.458	2.03362
0.462	2.03146
0.466	2.02935
0.470	2.02730
0.474	2.02529
0.478	2.02334
0.482	2.02144
0.486	2.01958
0.490	2.01777
0.494	2.01600
0.498	2.01427
0.502	2.01259
0.506	2.01094
0.510	2.00933
0.514	2.00776
0.518	2.00623
0.522	2.00473
0.526	2.00327
0.530	2.00184
0.534	2.00044
0.538	1.99907
0.542	1.99773
0.546	1.99642
0.550	1.99514
0.554	1.99389
0.558	1.99267
0.562	1.99147
0.566	1.99029
0.570	1.98914
0.574	1.98802
0.578	1.98692
0.582	1.98584
0.586	1.98478
0.590	1.98374
0.594	1.98273
0.598	1.98173
0.602	1.98076
0.606	1.97980
0.610	1.97887
0.614	1.97795
0.618	1.97704
0.622	1.97616
0.626	1.97529
0.630	1.97444
0.634	1.97361
0.638	1.97279
0.642	1.97199
0.646	1.97120
0.650	1.97042
0.654	1.96966
0.658	1.96892
0.662	1.96819
0.666	1.96747
0.670	1.96676
0.674	1.96607
0.678	1.96538
0.682	1.96471
0.686	1.96406
0.690	1.96341
0.694	1.96277
0.698	1.96215
0.702	1.96153
0.706	1.96093
0.710	1.96034
0.714	1.95975
0.718	1.95918
0.722	1.95862
0.726	1.95806
0.730	1.95751
0.734	1.95698
0.738	1.95645
0.742	1.95593
0.746	1.95542
0.750	1.95491
0.754	1.95442
0.758	1.95393
0.762	1.95345
0.766	1.95298
0.770	1.95251
0.774	1.95206
0.778	1.95161
0.782	1.95116
0.786	1.95072
0.790	1.95029
0.794	1.94987
0.798	1.94945
0.802	1.94904
0.806	1.94863
0.810	1.94824
0.814	1.94784
0.818	1.94745
0.822	1.94707
0.826	1.94670
0.830	1.94633
0.834	1.94596
0.838	1.94560
0.842	1.94524
0.846	1.94489
0.850	1.94455
0.854	1.94421
0.858	1.94387
0.862	1.94354
0.866	1.94321
0.870	1.94289
0.874	1.94257
0.878	1.94226
0.882	1.94195
0.886	1.94165
0.890	1.94135
0.894	1.94105
0.898	1.94076
0.902	1.94047
0.906	1.94018
0.910	1.93990
0.914	1.93962
0.918	1.93935
0.922	1.93908
0.926	1.93881
0.930	1.93855
0.934	1.93829
0.938	1.93803
0.942	1.93778
0.946	1.93753
0.950	1.93728
0.954	1.93704
0.958	1.93680
0.962	1.93656
0.966	1.93632
0.970	1.93609
0.974	1.93586
0.978	1.93563
0.982	1.93541
0.986	1.93519
0.990	1.93497
0.994	1.93475
0.998	1.93454
1.002	1.93433
1.006	1.93412
1.010	1.93392
1.014	1.93371
1.018	1.93351
1.022	1.93331
1.026	1.93312
1.030	1.93292
1.034	1.93273
1.038	1.93254
1.042	1.93236
1.046	1.93217
1.050	1.93199
1.054	1.93181
1.058	1.93163
1.062	1.93145
1.066	1.93128
1.070	1.93110
1.074	1.93093
1.078	1.93076
1.082	1.93060
1.086	1.93043
1.090	1.93027
1.094	1.93011
1.098	1.92995
1.102	1.92979
1.106	1.92963
1.110	1.92948
1.114	1.92932
1.118	1.92917
1.122	1.92902
1.126	1.92887
1.130	1.92873
1.134	1.92858
1.138	1.92844
1.142	1.92830
1.146	1.92815
1.150	1.92802
1.154	1.92788
1.158	1.92774
1.162	1.92761
1.166	1.92747
1.170	1.92734
1.174	1.92721
1.178	1.92708
1.182	1.92695
1.186	1.92683
1.190	1.92670
1.194	1.92657
1.198	1.92645
1.202	1.92633
1.206	1.92621
1.210	1.92609
1.214	1.92597
1.218	1.92585
1.222	1.92574
1.226	1.92562
1.230	1.92551
1.234	1.92540
1.238	1.92528
1.242	1.92518
1.246	1.92507
1.250	1.92496
1.254	1.92485
1.258	1.92474
1.262	1.92464
1.266	1.92453
1.270	1.92443
1.274	1.92433
1.278	1.92423
1.282	1.92413
1.286	1.92403
1.290	1.92393
1.294	1.92383
1.298	1.92373
1.302	1.92364
1.306	1.92354
1.310	1.92345
1.314	1.92336
1.318	1.92326
1.322	1.92317
1.326	1.92308
1.330	1.92299
1.334	1.92290
1.338	1.92281
1.342	1.92273
1.346	1.92264
1.350	1.92255
1.354	1.92247
1.358	1.92238
1.362	1.92230
1.366	1.92222
1.370	1.92213
1.374	1.92205
1.378	1.92197
1.382	1.92189
1.386	1.92181
1.390	1.92173
1.394	1.92166
1.398	1.92158
1.402	1.92150
1.406	1.92142
1.410	1.92135
1.414	1.92128
1.418	1.92120
1.422	1.92113
1.426	1.92105
1.430	1.92098
1.434	1.92091
1.438	1.92084
1.442	1.92077
1.446	1.92070
1.450	1.92063
1.454	1.92056
1.458	1.92049
1.462	1.92042
1.466	1.92036
1.470	1.92029
1.474	1.92023
1.478	1.92016
1.482	1.92009
1.486	1.92003
1.490	1.91997
1.494	1.91990
1.498	1.91984
1.502	1.91978
1.506	1.91972
1.510	1.91965
1.514	1.91959
1.518	1.91953
1.522	1.91947
1.526	1.91941
1.530	1.91935
1.534	1.91930
1.538	1.91924
1.542	1.91918
1.546	1.91912
1.550	1.91907
1.554	1.91901
1.558	1.91895
1.562	1.91890
1.566	1.91884
1.570	1.91879
1.574	1.91873
1.578	1.91868
1.582	1.91863
1.586	1.91857
1.590	1.91852
1.594	1.91847
1.598	1.91842
1.602	1.91837
1.606	1.91832
1.610	1.91826
1.614	1.91821
1.618	1.91816
1.622	1.91811
1.626	1.91806
1.630	1.91802
1.634	1.91797
1.638	1.91792
1.642	1.91787
1.646	1.91782
1.650	1.91778
1.654	1.91773
1.658	1.91768
1.662	1.91764
1.666	1.91759
1.670	1.91755
1.674	1.91750
1.678	1.91746
1.682	1.91741
1.686	1.91737
1.690	1.91732
1.694	1.91728
1.698	1.91724
