Material: main / GaAs / Matteo-220fs
Optical constants. D. Matteo, S. Tochitsky, J. Pigeon, C. Joshi. Pulse length effects in the nonresonant long-wave infrared nonlinear optical response of n-Ge, GaAs, and ZnSe. J. Opt. Soc. Am. B 41, E35 (2024)
Comments: 220 fs. Z-scan.
Specs: {"n2_method": "Z-scan", "pulse_duration": "220e-15"}
wavelength (um)	n	2
10.6	4e-18
