Material: main / Te / Matteo-e
Optical constants. D. Matteo, S. Tochitsky, C. Joshi. Tellurium crystal pumped with ultrafast 10 Âµm pulses demonstrates a giant nonlinear optical response. Opt. Express 31, 27239 (2023)
Comments: Extraordinary ray (e). 220 fs. Spectral broadening.
Specs: {"n2_method": "SB", "pulse_duration": "220e-15"}
wavelength (um)	n	2
10.6	5.5e-16
