Material: main / Al / Rakic
Optical constants. A. D. Rakić, A. B. Djurišic, J. M. Elazar, and M. L. Majewski. Optical properties of metallic films for vertical-cavity optoelectronic devices, Appl. Opt. 37, 5271-5283 (1998)[Calculation script (Python)]
Comments: Fit of the experimental data from several sources to Brendel-Bormann (BB) model
wavelength (um)	n	k
2.0664e-01	1.2289e-01	2.2884e+00
2.0767e-01	1.2404e-01	2.3018e+00
2.0870e-01	1.2520e-01	2.3153e+00
2.0975e-01	1.2637e-01	2.3289e+00
2.1081e-01	1.2756e-01	2.3427e+00
2.1188e-01	1.2877e-01	2.3565e+00
2.1295e-01	1.2999e-01	2.3705e+00
2.1404e-01	1.3123e-01	2.3847e+00
2.1515e-01	1.3248e-01	2.3990e+00
2.1626e-01	1.3376e-01	2.4134e+00
2.1738e-01	1.3505e-01	2.4279e+00
2.1852e-01	1.3635e-01	2.4426e+00
2.1967e-01	1.3768e-01	2.4574e+00
2.2083e-01	1.3902e-01	2.4724e+00
2.2200e-01	1.4038e-01	2.4875e+00
2.2318e-01	1.4177e-01	2.5028e+00
2.2438e-01	1.4317e-01	2.5182e+00
2.2559e-01	1.4459e-01	2.5337e+00
2.2681e-01	1.4603e-01	2.5495e+00
2.2805e-01	1.4750e-01	2.5654e+00
2.2930e-01	1.4899e-01	2.5814e+00
2.3057e-01	1.5050e-01	2.5976e+00
2.3184e-01	1.5203e-01	2.6140e+00
2.3314e-01	1.5359e-01	2.6306e+00
2.3444e-01	1.5517e-01	2.6473e+00
2.3577e-01	1.5678e-01	2.6642e+00
2.3710e-01	1.5841e-01	2.6813e+00
2.3845e-01	1.6008e-01	2.6985e+00
2.3982e-01	1.6176e-01	2.7160e+00
2.4120e-01	1.6348e-01	2.7336e+00
2.4260e-01	1.6523e-01	2.7515e+00
2.4402e-01	1.6701e-01	2.7695e+00
2.4545e-01	1.6881e-01	2.7878e+00
2.4690e-01	1.7066e-01	2.8062e+00
2.4837e-01	1.7253e-01	2.8248e+00
2.4985e-01	1.7444e-01	2.8437e+00
2.5135e-01	1.7638e-01	2.8628e+00
2.5287e-01	1.7836e-01	2.8821e+00
2.5441e-01	1.8038e-01	2.9016e+00
2.5597e-01	1.8243e-01	2.9214e+00
2.5755e-01	1.8453e-01	2.9414e+00
2.5914e-01	1.8667e-01	2.9616e+00
2.6076e-01	1.8885e-01	2.9820e+00
2.6239e-01	1.9107e-01	3.0028e+00
2.6405e-01	1.9334e-01	3.0237e+00
2.6573e-01	1.9566e-01	3.0449e+00
2.6743e-01	1.9802e-01	3.0664e+00
2.6915e-01	2.0044e-01	3.0882e+00
2.7089e-01	2.0291e-01	3.1102e+00
2.7266e-01	2.0543e-01	3.1325e+00
2.7445e-01	2.0801e-01	3.1551e+00
2.7626e-01	2.1064e-01	3.1779e+00
2.7810e-01	2.1334e-01	3.2011e+00
2.7996e-01	2.1610e-01	3.2246e+00
2.8185e-01	2.1892e-01	3.2483e+00
2.8376e-01	2.2181e-01	3.2724e+00
2.8570e-01	2.2477e-01	3.2968e+00
2.8766e-01	2.2780e-01	3.3215e+00
2.8966e-01	2.3090e-01	3.3466e+00
2.9168e-01	2.3408e-01	3.3720e+00
2.9372e-01	2.3734e-01	3.3977e+00
2.9580e-01	2.4069e-01	3.4238e+00
2.9791e-01	2.4411e-01	3.4503e+00
3.0005e-01	2.4763e-01	3.4771e+00
3.0222e-01	2.5124e-01	3.5043e+00
3.0442e-01	2.5495e-01	3.5319e+00
3.0665e-01	2.5876e-01	3.5599e+00
3.0891e-01	2.6267e-01	3.5882e+00
3.1121e-01	2.6668e-01	3.6170e+00
3.1354e-01	2.7081e-01	3.6462e+00
3.1591e-01	2.7506e-01	3.6758e+00
3.1832e-01	2.7943e-01	3.7059e+00
3.2076e-01	2.8392e-01	3.7364e+00
3.2324e-01	2.8854e-01	3.7673e+00
3.2576e-01	2.9331e-01	3.7987e+00
3.2831e-01	2.9821e-01	3.8306e+00
3.3091e-01	3.0326e-01	3.8630e+00
3.3355e-01	3.0846e-01	3.8958e+00
3.3623e-01	3.1382e-01	3.9292e+00
3.3896e-01	3.1935e-01	3.9631e+00
3.4173e-01	3.2505e-01	3.9975e+00
3.4454e-01	3.3094e-01	4.0324e+00
3.4741e-01	3.3701e-01	4.0679e+00
3.5032e-01	3.4328e-01	4.1039e+00
3.5328e-01	3.4975e-01	4.1406e+00
3.5629e-01	3.5643e-01	4.1778e+00
3.5935e-01	3.6334e-01	4.2156e+00
3.6246e-01	3.7048e-01	4.2540e+00
3.6563e-01	3.7785e-01	4.2930e+00
3.6886e-01	3.8548e-01	4.3326e+00
3.7214e-01	3.9338e-01	4.3729e+00
3.7548e-01	4.0154e-01	4.4139e+00
3.7888e-01	4.0999e-01	4.4555e+00
3.8235e-01	4.1873e-01	4.4978e+00
3.8588e-01	4.2779e-01	4.5409e+00
3.8947e-01	4.3716e-01	4.5846e+00
3.9313e-01	4.4687e-01	4.6290e+00
3.9686e-01	4.5692e-01	4.6742e+00
4.0066e-01	4.6734e-01	4.7202e+00
4.0454e-01	4.7813e-01	4.7669e+00
4.0849e-01	4.8931e-01	4.8144e+00
4.1252e-01	5.0090e-01	4.8626e+00
4.1663e-01	5.1290e-01	4.9117e+00
4.2082e-01	5.2534e-01	4.9616e+00
4.2510e-01	5.3823e-01	5.0124e+00
4.2947e-01	5.5158e-01	5.0639e+00
4.3392e-01	5.6541e-01	5.1164e+00
4.3847e-01	5.7973e-01	5.1697e+00
4.4312e-01	5.9456e-01	5.2239e+00
4.4786e-01	6.0990e-01	5.2789e+00
4.5271e-01	6.2578e-01	5.3349e+00
4.5767e-01	6.4219e-01	5.3919e+00
4.6273e-01	6.5916e-01	5.4497e+00
4.6791e-01	6.7669e-01	5.5085e+00
4.7320e-01	6.9479e-01	5.5683e+00
4.7862e-01	7.1346e-01	5.6291e+00
4.8416e-01	7.3271e-01	5.6909e+00
4.8983e-01	7.5253e-01	5.7538e+00
4.9564e-01	7.7293e-01	5.8177e+00
5.0158e-01	7.9392e-01	5.8828e+00
5.0767e-01	8.1547e-01	5.9490e+00
5.1391e-01	8.3760e-01	6.0164e+00
5.2030e-01	8.6029e-01	6.0850e+00
5.2686e-01	8.8354e-01	6.1550e+00
5.3358e-01	9.0736e-01	6.2264e+00
5.4048e-01	9.3173e-01	6.2994e+00
5.4756e-01	9.5668e-01	6.3739e+00
5.5482e-01	9.8222e-01	6.4502e+00
5.6228e-01	1.0084e+00	6.5284e+00
5.6994e-01	1.0352e+00	6.6087e+00
5.7782e-01	1.0628e+00	6.6913e+00
5.8591e-01	1.0912e+00	6.7764e+00
5.9424e-01	1.1207e+00	6.8644e+00
6.0281e-01	1.1514e+00	6.9554e+00
6.1162e-01	1.1837e+00	7.0498e+00
6.2070e-01	1.2180e+00	7.1481e+00
6.3005e-01	1.2549e+00	7.2505e+00
6.3969e-01	1.2952e+00	7.3574e+00
6.4963e-01	1.3399e+00	7.4692e+00
6.5988e-01	1.3905e+00	7.5861e+00
6.7046e-01	1.4488e+00	7.7079e+00
6.8138e-01	1.5174e+00	7.8342e+00
6.9267e-01	1.5993e+00	7.9633e+00
7.0433e-01	1.6979e+00	8.0923e+00
7.1640e-01	1.8169e+00	8.2159e+00
7.2889e-01	1.9585e+00	8.3257e+00
7.4182e-01	2.1215e+00	8.4098e+00
7.5521e-01	2.2981e+00	8.4547e+00
7.6910e-01	2.4718e+00	8.4486e+00
7.8351e-01	2.6180e+00	8.3884e+00
7.9847e-01	2.7095e+00	8.2848e+00
8.1402e-01	2.7259e+00	8.1635e+00
8.3018e-01	2.6630e+00	8.0587e+00
8.4699e-01	2.5346e+00	8.0019e+00
8.6450e-01	2.3670e+00	8.0111e+00
8.8275e-01	2.1881e+00	8.0886e+00
9.0179e-01	2.0182e+00	8.2248e+00
9.2166e-01	1.8685e+00	8.4063e+00
9.4243e-01	1.7421e+00	8.6206e+00
9.6416e-01	1.6378e+00	8.8588e+00
9.8691e-01	1.5530e+00	9.1151e+00
1.0108e+00	1.4846e+00	9.3865e+00
1.0358e+00	1.4299e+00	9.6716e+00
1.0621e+00	1.3868e+00	9.9699e+00
1.0898e+00	1.3535e+00	1.0282e+01
1.1190e+00	1.3290e+00	1.0608e+01
1.1497e+00	1.3123e+00	1.0950e+01
1.1822e+00	1.3029e+00	1.1308e+01
1.2166e+00	1.3006e+00	1.1685e+01
1.2531e+00	1.3052e+00	1.2082e+01
1.2918e+00	1.3168e+00	1.2500e+01
1.3329e+00	1.3355e+00	1.2942e+01
1.3768e+00	1.3616e+00	1.3411e+01
1.4237e+00	1.3957e+00	1.3908e+01
1.4739e+00	1.4384e+00	1.4437e+01
1.5277e+00	1.4904e+00	1.5002e+01
1.5857e+00	1.5527e+00	1.5605e+01
1.6482e+00	1.6265e+00	1.6251e+01
1.7158e+00	1.7133e+00	1.6947e+01
1.7892e+00	1.8147e+00	1.7696e+01
1.8692e+00	1.9329e+00	1.8506e+01
1.9566e+00	2.0706e+00	1.9386e+01
2.0527e+00	2.2309e+00	2.0344e+01
2.1586e+00	2.4180e+00	2.1392e+01
2.2761e+00	2.6366e+00	2.2543e+01
2.4071e+00	2.8930e+00	2.3813e+01
2.5541e+00	3.1951e+00	2.5221e+01
2.7203e+00	3.5527e+00	2.6793e+01
2.9095e+00	3.9787e+00	2.8556e+01
3.1271e+00	4.4893e+00	3.0549e+01
3.3798e+00	5.1057e+00	3.2820e+01
3.6770e+00	5.8558e+00	3.5432e+01
4.0315e+00	6.7759e+00	3.8467e+01
4.4616e+00	7.9140e+00	4.2041e+01
4.9945e+00	9.3346e+00	4.6325e+01
5.6719e+00	1.1128e+01	5.1581e+01
6.5619e+00	1.3434e+01	5.8249e+01
7.7832e+00	1.6521e+01	6.7130e+01
9.5631e+00	2.1042e+01	7.9772e+01
1.2398e+01	2.8863e+01	9.9305e+01
