Material: main / Ag / Rakic
Optical constants. A. D. Rakić, A. B. Djurišic, J. M. Elazar, and M. L. Majewski. Optical properties of metallic films for vertical-cavity optoelectronic devices, Appl. Opt. 37, 5271-5283 (1998)[Calculation script (Python)]
Comments: Fit of the experimental data from several sources to Brendel-Bormann (BB) model
wavelength (um)	n	k
2.0664e-01	5.0443e-01	8.7139e-01
2.0767e-01	5.1583e-01	8.9625e-01
2.0870e-01	5.2789e-01	9.1994e-01
2.0975e-01	5.4054e-01	9.4247e-01
2.1081e-01	5.5371e-01	9.6386e-01
2.1188e-01	5.6732e-01	9.8412e-01
2.1295e-01	5.8129e-01	1.0033e+00
2.1404e-01	5.9557e-01	1.0213e+00
2.1515e-01	6.1010e-01	1.0383e+00
2.1626e-01	6.2479e-01	1.0541e+00
2.1738e-01	6.3960e-01	1.0689e+00
2.1852e-01	6.5445e-01	1.0827e+00
2.1967e-01	6.6929e-01	1.0954e+00
2.2083e-01	6.8405e-01	1.1071e+00
2.2200e-01	6.9867e-01	1.1178e+00
2.2318e-01	7.1307e-01	1.1275e+00
2.2438e-01	7.2720e-01	1.1362e+00
2.2559e-01	7.4098e-01	1.1440e+00
2.2681e-01	7.5435e-01	1.1510e+00
2.2805e-01	7.6723e-01	1.1570e+00
2.2930e-01	7.7956e-01	1.1622e+00
2.3057e-01	7.9126e-01	1.1667e+00
2.3184e-01	8.0224e-01	1.1704e+00
2.3314e-01	8.1245e-01	1.1734e+00
2.3444e-01	8.2178e-01	1.1759e+00
2.3577e-01	8.3016e-01	1.1778e+00
2.3710e-01	8.3750e-01	1.1792e+00
2.3845e-01	8.4371e-01	1.1803e+00
2.3982e-01	8.4868e-01	1.1813e+00
2.4120e-01	8.5233e-01	1.1821e+00
2.4260e-01	8.5454e-01	1.1831e+00
2.4402e-01	8.5521e-01	1.1844e+00
2.4545e-01	8.5427e-01	1.1863e+00
2.4690e-01	8.5163e-01	1.1891e+00
2.4837e-01	8.4728e-01	1.1933e+00
2.4985e-01	8.4127e-01	1.1993e+00
2.5135e-01	8.3375e-01	1.2077e+00
2.5287e-01	8.2504e-01	1.2192e+00
2.5441e-01	8.1568e-01	1.2343e+00
2.5597e-01	8.0647e-01	1.2538e+00
2.5755e-01	7.9851e-01	1.2781e+00
2.5914e-01	7.9314e-01	1.3074e+00
2.6076e-01	7.9193e-01	1.3415e+00
2.6239e-01	7.9646e-01	1.3798e+00
2.6405e-01	8.0824e-01	1.4210e+00
2.6573e-01	8.2845e-01	1.4635e+00
2.6743e-01	8.5783e-01	1.5054e+00
2.6915e-01	8.9661e-01	1.5443e+00
2.7089e-01	9.4443e-01	1.5779e+00
2.7266e-01	1.0004e+00	1.6042e+00
2.7445e-01	1.0630e+00	1.6210e+00
2.7626e-01	1.1304e+00	1.6268e+00
2.7810e-01	1.2005e+00	1.6204e+00
2.7996e-01	1.2706e+00	1.6011e+00
2.8185e-01	1.3383e+00	1.5687e+00
2.8376e-01	1.4009e+00	1.5236e+00
2.8570e-01	1.4560e+00	1.4669e+00
2.8766e-01	1.5015e+00	1.3999e+00
2.8966e-01	1.5354e+00	1.3244e+00
2.9168e-01	1.5564e+00	1.2426e+00
2.9372e-01	1.5634e+00	1.1569e+00
2.9580e-01	1.5561e+00	1.0697e+00
2.9791e-01	1.5344e+00	9.8348e-01
3.0005e-01	1.4988e+00	9.0047e-01
3.0222e-01	1.4501e+00	8.2278e-01
3.0442e-01	1.3894e+00	7.5225e-01
3.0665e-01	1.3179e+00	6.9045e-01
3.0891e-01	1.2371e+00	6.3867e-01
3.1121e-01	1.1482e+00	5.9806e-01
3.1354e-01	1.0527e+00	5.6969e-01
3.1591e-01	9.5199e-01	5.5473e-01
3.1832e-01	8.4784e-01	5.5461e-01
3.2076e-01	7.4283e-01	5.7098e-01
3.2324e-01	6.4101e-01	6.0503e-01
3.2576e-01	5.4786e-01	6.5596e-01
3.2831e-01	4.6837e-01	7.1970e-01
3.3091e-01	4.0445e-01	7.9013e-01
3.3355e-01	3.5466e-01	8.6187e-01
3.3623e-01	3.1608e-01	9.3179e-01
3.3896e-01	2.8589e-01	9.9858e-01
3.4173e-01	2.6185e-01	1.0620e+00
3.4454e-01	2.4236e-01	1.1221e+00
3.4741e-01	2.2631e-01	1.1794e+00
3.5032e-01	2.1291e-01	1.2341e+00
3.5328e-01	2.0160e-01	1.2867e+00
3.5629e-01	1.9196e-01	1.3373e+00
3.5935e-01	1.8370e-01	1.3864e+00
3.6246e-01	1.7659e-01	1.4341e+00
3.6563e-01	1.7045e-01	1.4807e+00
3.6886e-01	1.6513e-01	1.5261e+00
3.7214e-01	1.6051e-01	1.5707e+00
3.7548e-01	1.5651e-01	1.6146e+00
3.7888e-01	1.5304e-01	1.6577e+00
3.8235e-01	1.5004e-01	1.7004e+00
3.8588e-01	1.4745e-01	1.7425e+00
3.8947e-01	1.4521e-01	1.7843e+00
3.9313e-01	1.4329e-01	1.8258e+00
3.9686e-01	1.4165e-01	1.8670e+00
4.0066e-01	1.4026e-01	1.9080e+00
4.0454e-01	1.3909e-01	1.9489e+00
4.0849e-01	1.3811e-01	1.9898e+00
4.1252e-01	1.3731e-01	2.0306e+00
4.1663e-01	1.3667e-01	2.0715e+00
4.2082e-01	1.3616e-01	2.1124e+00
4.2510e-01	1.3579e-01	2.1535e+00
4.2947e-01	1.3552e-01	2.1947e+00
4.3392e-01	1.3536e-01	2.2361e+00
4.3847e-01	1.3529e-01	2.2778e+00
4.4312e-01	1.3530e-01	2.3198e+00
4.4786e-01	1.3539e-01	2.3622e+00
4.5271e-01	1.3555e-01	2.4049e+00
4.5767e-01	1.3577e-01	2.4480e+00
4.6273e-01	1.3605e-01	2.4915e+00
4.6791e-01	1.3639e-01	2.5356e+00
4.7320e-01	1.3678e-01	2.5802e+00
4.7862e-01	1.3722e-01	2.6253e+00
4.8416e-01	1.3770e-01	2.6711e+00
4.8983e-01	1.3823e-01	2.7175e+00
4.9564e-01	1.3880e-01	2.7646e+00
5.0158e-01	1.3941e-01	2.8124e+00
5.0767e-01	1.4006e-01	2.8610e+00
5.1391e-01	1.4075e-01	2.9104e+00
5.2030e-01	1.4148e-01	2.9607e+00
5.2686e-01	1.4225e-01	3.0119e+00
5.3358e-01	1.4306e-01	3.0641e+00
5.4048e-01	1.4391e-01	3.1172e+00
5.4756e-01	1.4480e-01	3.1714e+00
5.5482e-01	1.4573e-01	3.2267e+00
5.6228e-01	1.4671e-01	3.2832e+00
5.6994e-01	1.4774e-01	3.3409e+00
5.7782e-01	1.4881e-01	3.3999e+00
5.8591e-01	1.4992e-01	3.4603e+00
5.9424e-01	1.5110e-01	3.5220e+00
6.0281e-01	1.5232e-01	3.5853e+00
6.1162e-01	1.5360e-01	3.6500e+00
6.2070e-01	1.5494e-01	3.7165e+00
6.3005e-01	1.5635e-01	3.7846e+00
6.3969e-01	1.5782e-01	3.8546e+00
6.4963e-01	1.5937e-01	3.9264e+00
6.5988e-01	1.6099e-01	4.0002e+00
6.7046e-01	1.6269e-01	4.0761e+00
6.8138e-01	1.6448e-01	4.1542e+00
6.9267e-01	1.6637e-01	4.2347e+00
7.0433e-01	1.6835e-01	4.3175e+00
7.1640e-01	1.7044e-01	4.4029e+00
7.2889e-01	1.7264e-01	4.4911e+00
7.4182e-01	1.7496e-01	4.5821e+00
7.5521e-01	1.7742e-01	4.6761e+00
7.6910e-01	1.8002e-01	4.7733e+00
7.8351e-01	1.8277e-01	4.8738e+00
7.9847e-01	1.8568e-01	4.9780e+00
8.1402e-01	1.8878e-01	5.0859e+00
8.3018e-01	1.9206e-01	5.1978e+00
8.4699e-01	1.9556e-01	5.3140e+00
8.6450e-01	1.9928e-01	5.4347e+00
8.8275e-01	2.0325e-01	5.5602e+00
9.0179e-01	2.0748e-01	5.6909e+00
9.2166e-01	2.1201e-01	5.8270e+00
9.4243e-01	2.1685e-01	5.9690e+00
9.6416e-01	2.2204e-01	6.1172e+00
9.8691e-01	2.2762e-01	6.2721e+00
1.0108e+00	2.3362e-01	6.4342e+00
1.0358e+00	2.4008e-01	6.6040e+00
1.0621e+00	2.4704e-01	6.7822e+00
1.0898e+00	2.5458e-01	6.9693e+00
1.1190e+00	2.6274e-01	7.1661e+00
1.1497e+00	2.7159e-01	7.3733e+00
1.1822e+00	2.8122e-01	7.5920e+00
1.2166e+00	2.9171e-01	7.8230e+00
1.2531e+00	3.0318e-01	8.0675e+00
1.2918e+00	3.1574e-01	8.3267e+00
1.3329e+00	3.2953e-01	8.6020e+00
1.3768e+00	3.4472e-01	8.8950e+00
1.4237e+00	3.6151e-01	9.2076e+00
1.4739e+00	3.8011e-01	9.5417e+00
1.5277e+00	4.0081e-01	9.8998e+00
1.5857e+00	4.2391e-01	1.0284e+01
1.6482e+00	4.4982e-01	1.0699e+01
1.7158e+00	4.7898e-01	1.1147e+01
1.7892e+00	5.1198e-01	1.1632e+01
1.8692e+00	5.4950e-01	1.2161e+01
1.9566e+00	5.9241e-01	1.2737e+01
2.0527e+00	6.4178e-01	1.3370e+01
2.1586e+00	6.9897e-01	1.4067e+01
2.2761e+00	7.6572e-01	1.4839e+01
2.4071e+00	8.4427e-01	1.5698e+01
2.5541e+00	9.3755e-01	1.6660e+01
2.7203e+00	1.0495e+00	1.7745e+01
2.9095e+00	1.1854e+00	1.8978e+01
3.1271e+00	1.3526e+00	2.0393e+01
3.3798e+00	1.5614e+00	2.2031e+01
3.6770e+00	1.8267e+00	2.3950e+01
4.0315e+00	2.1710e+00	2.6229e+01
4.4616e+00	2.6286e+00	2.8978e+01
4.9945e+00	3.2549e+00	3.2359e+01
5.6719e+00	4.1431e+00	3.6611e+01
6.5619e+00	5.4598e+00	4.2116e+01
7.7832e+00	7.5257e+00	4.9499e+01
9.5631e+00	1.1017e+01	5.9867e+01
1.2398e+01	1.7540e+01	7.5326e+01
