Material: alloys / V-H / Palm
Optical constants. K. J. Palm, J. B. Murray, T. C. Narayan, J. N. Munday. Dynamic optical properties of metal hydrides, ACS Photonics 5, 4677-4686 (2018)(Numerical data kindly provided by Kevin Palm)
Comments: Vanadium Hydride, Under 7 bar H2 gas, Room temperature, 200 nm thin film, electron beam evaporated, vacuum annealed 2 hr 350 Â°C.
wavelength (um)	n	k
0.301107483	1.7764	2.136356
0.30430069	1.789141	2.149651
0.307493866	1.801623	2.163658
0.310687073	1.814144	2.178439
0.31388028	1.827013	2.193979
0.317073456	1.840554	2.210182
0.320266632	1.855134	2.226789
0.323459808	1.870878	2.243281
0.326652954	1.88763	2.25928
0.32984613	1.905181	2.274542
0.333039246	1.923303	2.288915
0.33623233	1.941764	2.30231
0.339425385	1.960331	2.314692
0.342618439	1.97877	2.326071
0.345811462	1.996828	2.336516
0.349004425	2.014239	2.346223
0.352197357	2.030926	2.355516
0.355390259	2.046946	2.364625
0.358583099	2.062385	2.373709
0.361775909	2.077341	2.382883
0.364968658	2.091919	2.39223
0.368161346	2.106225	2.401805
0.371353973	2.120368	2.411643
0.37454657	2.134454	2.421755
0.377739075	2.148599	2.432134
0.380931549	2.162924	2.442739
0.384123932	2.177528	2.453454
0.387316223	2.192423	2.464164
0.390508484	2.207592	2.474789
0.393700623	2.223014	2.485269
0.396892731	2.23866	2.495556
0.400084717	2.2545	2.505616
0.403276642	2.270505	2.515419
0.406468445	2.286642	2.524947
0.409660156	2.302881	2.534184
0.412851807	2.319192	2.54312
0.416043304	2.335546	2.551749
0.419234772	2.351913	2.560071
0.422426086	2.368263	2.56809
0.425617279	2.384573	2.575822
0.428808411	2.400828	2.583278
0.43199942	2.417017	2.590471
0.435190277	2.433128	2.59741
0.438381012	2.449156	2.604105
0.441571625	2.46509	2.610563
0.444762146	2.480926	2.616794
0.447952545	2.496656	2.622805
0.451142761	2.512275	2.628603
0.454332855	2.527777	2.634197
0.457522858	2.543159	2.639594
0.460712708	2.558416	2.6448
0.463902405	2.573543	2.649823
0.467091888	2.588537	2.654671
0.470281311	2.603394	2.659349
0.47347052	2.618109	2.663868
0.476659607	2.632682	2.668236
0.479848541	2.647111	2.672461
0.483037292	2.661396	2.676553
0.486225891	2.67554	2.680518
0.489414307	2.689543	2.684362
0.492602539	2.703405	2.688092
0.495790619	2.71713	2.691711
0.498978516	2.730717	2.695227
0.50216626	2.74417	2.698642
0.505353821	2.757489	2.701963
0.508541168	2.770677	2.705192
0.511728333	2.783735	2.708333
0.514915283	2.796664	2.71139
0.518102051	2.809467	2.714367
0.521288696	2.822146	2.717266
0.524475037	2.834703	2.720089
0.527661255	2.847139	2.722841
0.530847168	2.859457	2.725522
0.534032959	2.87166	2.728135
0.537218506	2.883749	2.730681
0.540403809	2.895727	2.73316
0.543588928	2.907595	2.735571
0.546773804	2.919352	2.737914
0.549958496	2.930998	2.740191
0.553142944	2.942533	2.742402
0.556327148	2.953956	2.744549
0.559511108	2.965267	2.746632
0.562694824	2.976465	2.748653
0.565878296	2.98755	2.750614
0.569061646	2.998521	2.752516
0.572244629	3.009378	2.75436
0.575427368	3.02012	2.75615
0.578609863	3.030746	2.757885
0.581792114	3.041257	2.759568
0.584974121	3.051651	2.761202
0.588155884	3.061929	2.762787
0.591337341	3.072088	2.764326
0.594518555	3.082129	2.765821
0.597699524	3.092052	2.767273
0.600880188	3.101855	2.768686
0.604060608	3.111537	2.770061
0.607240723	3.121098	2.7714
0.610420532	3.130536	2.772707
0.613600098	3.139851	2.773983
0.616779358	3.149041	2.775231
0.619958374	3.158103	2.776455
0.623137024	3.167036	2.77766
0.62631543	3.175838	2.778854
0.62949353	3.184513	2.780043
0.632671265	3.193062	2.781232
0.635848755	3.201489	2.782425
0.639026001	3.209796	2.783627
0.64220282	3.217988	2.78484
0.645379395	3.226066	2.786068
0.648555664	3.234035	2.787314
0.651731567	3.241897	2.78858
0.654907166	3.249656	2.789868
0.658082458	3.257315	2.79118
0.661257446	3.264877	2.792517
0.664432007	3.272345	2.793882
0.667606323	3.279722	2.795275
0.670780273	3.287011	2.796699
0.673953857	3.294215	2.798152
0.677127136	3.301337	2.799638
0.680300049	3.308379	2.801156
0.683472656	3.315344	2.802706
0.686644897	3.322235	2.80429
0.689816772	3.329054	2.805908
0.69298822	3.335804	2.80756
0.696159424	3.342488	2.809246
0.6993302	3.349106	2.810967
0.70250061	3.355662	2.812722
0.705670715	3.362158	2.814512
0.708840393	3.368595	2.816337
0.712009705	3.374977	2.818196
0.715178589	3.381304	2.82009
0.718347168	3.387579	2.822018
0.721515381	3.393804	2.823981
0.724683167	3.39998	2.825977
0.727850525	3.406109	2.828006
0.731017578	3.412193	2.830069
0.734184204	3.418233	2.832165
0.737350403	3.424231	2.834294
0.740516235	3.430188	2.836454
0.743681641	3.436105	2.838647
0.746846619	3.441985	2.840872
0.75001123	3.447828	2.843128
0.753175415	3.453636	2.845416
0.756339233	3.459411	2.847733
0.759502563	3.465153	2.850081
0.762665527	3.470864	2.852459
0.765828003	3.476544	2.854866
0.768990112	3.482197	2.857302
0.772151733	3.487821	2.859766
0.775312988	3.493418	2.862258
0.778473755	3.498991	2.864776
0.781634155	3.504538	2.867322
0.784794067	3.510063	2.869894
0.787953552	3.515564	2.872491
0.79111261	3.521044	2.875113
0.794271118	3.526504	2.87776
0.797429321	3.531943	2.88043
0.800586975	3.537363	2.883124
0.803744202	3.542765	2.885841
0.80690094	3.548149	2.88858
0.810057251	3.553517	2.89134
0.813213013	3.558868	2.894122
0.816368408	3.564204	2.896924
0.819523254	3.569525	2.899746
0.822677734	3.574832	2.902587
0.825831665	3.580125	2.905448
0.828985046	3.585405	2.908326
0.832138062	3.590672	2.911222
0.835290527	3.595928	2.914136
0.838442505	3.601172	2.917066
0.841594055	3.606405	2.920012
0.844744995	3.611628	2.922974
0.847895508	3.61684	2.925951
0.851045593	3.622043	2.928942
0.854195007	3.627236	2.931948
0.857344055	3.63242	2.934966
0.860492554	3.637596	2.937998
0.863640503	3.642764	2.941043
0.866787964	3.647924	2.944099
0.869934937	3.653076	2.947167
0.87308136	3.658221	2.950246
0.876227356	3.663359	2.953336
0.879372681	3.668491	2.956436
0.882517456	3.673616	2.959545
0.885661804	3.678735	2.962664
0.888805664	3.683848	2.965792
0.891948914	3.688955	2.968927
0.895091614	3.694057	2.972071
0.898233765	3.699154	2.975222
0.901375366	3.704245	2.97838
0.904516479	3.709332	2.981545
0.907656921	3.714414	2.984716
0.910796997	3.719492	2.987892
0.91393634	3.724566	2.991074
0.917075195	3.729635	2.994261
0.920213501	3.7347	2.997452
0.923351257	3.739762	3.000646
0.926488403	3.744819	3.003844
0.929625	3.749872	3.007046
0.932760925	3.754921	3.01025
0.935896362	3.759967	3.013456
0.93903125	3.765009	3.016664
0.942165527	3.770047	3.019874
0.945299194	3.775081	3.023085
0.948432312	3.780111	3.026298
0.951564819	3.785138	3.029511
0.954696777	3.79016	3.032724
0.957828125	3.795179	3.035937
0.960958801	3.800194	3.03915
0.964088989	3.805205	3.042363
0.967218445	3.810212	3.045575
0.970347351	3.815215	3.048786
0.973475708	3.820214	3.051996
0.976603333	3.825208	3.055204
0.979730347	3.830199	3.05841
0.982856812	3.835186	3.061615
0.985982727	3.840168	3.064817
0.98910791	3.845146	3.068017
0.992232544	3.85012	3.071214
0.995356445	3.855089	3.074409
0.998479797	3.860054	3.0776
1.014837524	3.885997	3.09427
1.021614868	3.896714	3.101151
1.028394165	3.907416	3.108017
1.035175293	3.9181	3.114866
1.041958252	3.928766	3.121696
1.048743286	3.939412	3.128508
1.055530029	3.950039	3.135299
1.062318848	3.960644	3.14207
1.069109497	3.971227	3.148818
1.075901978	3.981786	3.155544
1.082696411	3.992322	3.162247
1.089492676	4.002831	3.168927
1.096290894	4.013313	3.175582
1.103091064	4.023767	3.182213
1.109893066	4.034192	3.18882
1.116697021	4.044586	3.195402
1.123502686	4.054946	3.20196
1.130310425	4.065274	3.208493
1.137119995	4.075565	3.215002
1.143931396	4.085819	3.221487
1.150744873	4.096034	3.227949
1.157560059	4.106208	3.234389
1.164377197	4.116338	3.240808
1.171196289	4.126421	3.247207
1.178017212	4.136454	3.253588
1.184840088	4.146433	3.259955
1.191664795	4.156354	3.266316
1.198491455	4.166221	3.272678
1.205319946	4.176033	3.279046
1.212150269	4.185796	3.285426
1.218982666	4.195512	3.291821
1.225816772	4.205185	3.298233
1.232652954	4.21482	3.304667
1.239490845	4.224419	3.311122
1.246330811	4.233986	3.317602
1.253172485	4.243526	3.324107
1.260016113	4.253042	3.330639
1.266861572	4.262537	3.337198
1.273709106	4.272016	3.343783
1.28055835	4.281481	3.350396
1.287409668	4.290936	3.357037
1.294262695	4.300385	3.363704
1.301117676	4.30983	3.370397
1.307974609	4.319274	3.377117
1.314833374	4.328722	3.383861
1.321694092	4.338173	3.39063
1.328556519	4.347633	3.397422
1.335421021	4.357104	3.404236
1.342287354	4.366588	3.41107
1.349155518	4.376087	3.417925
1.356025635	4.385604	3.424798
1.362897705	4.395142	3.431687
1.369771606	4.404701	3.438592
1.376647339	4.414284	3.445511
1.383525024	4.423894	3.452443
1.390404541	4.433532	3.459385
1.397285889	4.443199	3.466336
1.404169312	4.452899	3.473296
1.411054443	4.46263	3.480261
1.41794165	4.472397	3.487231
1.424830688	4.4822	3.494203
1.431721436	4.492041	3.501177
1.438614258	4.501921	3.508149
1.445508911	4.51184	3.51512
1.452405518	4.521802	3.522086
1.459303955	4.531806	3.529046
1.466204224	4.541855	3.535999
1.473106323	4.551948	3.542942
1.480010498	4.562088	3.549875
1.486916382	4.572274	3.556795
1.493824341	4.58251	3.5637
1.500734131	4.592794	3.57059
1.507645752	4.603129	3.577461
1.514559204	4.613514	3.584314
1.521474609	4.623953	3.591145
1.528391846	4.634444	3.597953
1.535311035	4.644989	3.604736
1.542232056	4.655589	3.611493
1.549155029	4.666245	3.618222
1.556079834	4.676958	3.624921
1.563006592	4.687729	3.631589
1.569935181	4.698558	3.638224
1.576865601	4.709447	3.644823
1.583797974	4.720397	3.651386
1.590732178	4.731409	3.65791
1.597668335	4.742483	3.664394
1.604606323	4.753622	3.670835
1.611546143	4.764826	3.677233
1.618488037	4.776097	3.683585
1.625431641	4.787436	3.689888
1.632377197	4.798844	3.696142
1.639324585	4.810323	3.702343
1.646274048	4.821876	3.70849
1.65322522	4.833504	3.714579
1.660178101	4.845209	3.72061
1.667133179	4.856994	3.726578
1.674090088	4.868862	3.73248
1.681048584	4.880817	3.738314
