Material: mixed crystals / In2O3-SnO2 / Minenkov-glass
Optical constants. A. Minenkov, S. Hollweger, J. Duchoslav, O. Erdene-Ochir, M. Weise, E. Ermilova, A. Hertwig, M. Schiek. Monitoring the electrochemical failure of indium tin oxide electrodes via operando ellipsometry. ACS Appl Mater Interfaces 16, 9517-9531 (2024) (Numerical data kindly provided by Manuela Schiek)
Comments: 110 nm thick ITO layer on glass type XY15S purchased from Xinyan Technology LTD.
Specs: {"film_thickness": "110e-9", "substrate": "glass"}
wavelength (um)	n	k
0.19146	2.04232	0.59569
0.19465	2.06105	0.60710
0.19784	2.08003	0.61447
0.20104	2.09867	0.61839
0.20423	2.11656	0.61948
0.20742	2.13346	0.61834
0.21062	2.14925	0.61551
0.21381	2.16392	0.61152
0.21701	2.17756	0.60682
0.22020	2.19036	0.60180
0.22340	2.20258	0.59679
0.22659	2.21454	0.59203
0.22979	2.22664	0.58767
0.23298	2.23933	0.58374
0.23618	2.25311	0.58015
0.23938	2.26848	0.57661
0.24257	2.28593	0.57267
0.24577	2.30584	0.56760
0.24897	2.32839	0.56046
0.25216	2.35346	0.55012
0.25536	2.38045	0.53532
0.25856	2.40818	0.51496
0.26176	2.43496	0.48832
0.26496	2.45872	0.45539
0.26815	2.47739	0.41703
0.27135	2.48937	0.37491
0.27455	2.49385	0.33122
0.27775	2.49094	0.28820
0.28095	2.48152	0.24770
0.28415	2.46693	0.21100
0.28735	2.44864	0.17876
0.29055	2.42800	0.15112
0.29375	2.40615	0.12787
0.29695	2.38395	0.10859
0.30015	2.36201	0.09282
0.30335	2.34075	0.08005
0.30655	2.32044	0.06982
0.30975	2.30124	0.06173
0.31295	2.28326	0.05542
0.31615	2.26658	0.05060
0.31935	2.25133	0.04703
0.32255	2.23769	0.04403
0.32576	2.22512	0.04122
0.32896	2.21335	0.03861
0.33216	2.20226	0.03617
0.33536	2.19173	0.03391
0.33856	2.18170	0.03180
0.34176	2.17211	0.02985
0.34497	2.16291	0.02804
0.34817	2.15408	0.02635
0.35137	2.14558	0.02479
0.35457	2.13738	0.02335
0.35777	2.12945	0.02200
0.36098	2.12179	0.02076
0.36418	2.11436	0.01961
0.36738	2.10716	0.01854
0.37058	2.10017	0.01756
0.37379	2.09337	0.01664
0.37699	2.08676	0.01580
0.38019	2.08033	0.01502
0.38339	2.07406	0.01430
0.38660	2.06794	0.01363
0.38980	2.06197	0.01301
0.39300	2.05613	0.01244
0.39621	2.05043	0.01192
0.39941	2.04485	0.01144
0.40261	2.03938	0.01099
0.40581	2.03403	0.01058
0.40902	2.02878	0.01021
0.41222	2.02364	0.00986
0.41542	2.01858	0.00955
0.41863	2.01362	0.00926
0.42183	2.00873	0.00899
0.42503	2.00393	0.00875
0.42823	1.99921	0.00853
0.43144	1.99456	0.00834
0.43464	1.98998	0.00816
0.43784	1.98546	0.00800
0.44105	1.98100	0.00785
0.44425	1.97661	0.00773
0.44745	1.97227	0.00761
0.45065	1.96798	0.00751
0.45386	1.96375	0.00743
0.45706	1.95956	0.00735
0.46026	1.95541	0.00729
0.46346	1.95131	0.00724
0.46667	1.94725	0.00720
0.46987	1.94323	0.00717
0.47307	1.93925	0.00715
0.47627	1.93530	0.00714
0.47947	1.93138	0.00714
0.48267	1.92749	0.00714
0.48588	1.92364	0.00715
0.48908	1.91981	0.00718
0.49228	1.91601	0.00720
0.49548	1.91223	0.00724
0.49868	1.90847	0.00728
0.50188	1.90474	0.00732
0.50508	1.90103	0.00737
0.50828	1.89733	0.00743
0.51149	1.89366	0.00749
0.51469	1.89000	0.00756
0.51789	1.88635	0.00764
0.52109	1.88273	0.00771
0.52429	1.87911	0.00780
0.52749	1.87551	0.00788
0.53069	1.87192	0.00797
0.53389	1.86834	0.00807
0.53709	1.86477	0.00817
0.54028	1.86121	0.00828
0.54348	1.85765	0.00838
0.54668	1.85411	0.00850
0.54988	1.85057	0.00861
0.55308	1.84703	0.00873
0.55628	1.84350	0.00886
0.55948	1.83998	0.00898
0.56267	1.83646	0.00911
0.56587	1.83294	0.00925
0.56907	1.82943	0.00939
0.57227	1.82591	0.00953
0.57546	1.82240	0.00967
0.57866	1.81888	0.00982
0.58186	1.81537	0.00997
0.58505	1.81186	0.01013
0.58825	1.80834	0.01029
0.59144	1.80483	0.01045
0.59464	1.80131	0.01061
0.59783	1.79779	0.01078
0.60103	1.79426	0.01095
0.60422	1.79074	0.01113
0.60742	1.78720	0.01130
0.61061	1.78367	0.01148
0.61381	1.78012	0.01167
0.61700	1.77658	0.01185
0.62019	1.77302	0.01205
0.62339	1.76947	0.01224
0.62658	1.76590	0.01244
0.62977	1.76233	0.01264
0.63296	1.75875	0.01284
0.63616	1.75516	0.01304
0.63935	1.75156	0.01325
0.64254	1.74796	0.01347
0.64573	1.74434	0.01368
0.64892	1.74072	0.01390
0.65211	1.73709	0.01413
0.65530	1.73345	0.01435
0.65849	1.72980	0.01458
0.66168	1.72613	0.01482
0.66487	1.72246	0.01505
0.66805	1.71877	0.01529
0.67124	1.71508	0.01553
0.67443	1.71137	0.01578
0.67762	1.70765	0.01603
0.68080	1.70392	0.01628
0.68399	1.70017	0.01654
0.68718	1.69642	0.01680
0.69036	1.69265	0.01707
0.69355	1.68886	0.01733
0.69673	1.68507	0.01760
0.69992	1.68125	0.01788
0.70310	1.67743	0.01816
0.70628	1.67359	0.01844
0.70947	1.66973	0.01873
0.71265	1.66586	0.01902
0.71583	1.66198	0.01931
0.71902	1.65807	0.01961
0.72220	1.65416	0.01991
0.72538	1.65023	0.02022
0.72856	1.64627	0.02053
0.73174	1.64231	0.02085
0.73492	1.63833	0.02117
0.73810	1.63433	0.02149
0.74128	1.63031	0.02182
0.74446	1.62627	0.02215
0.74763	1.62222	0.02248
0.75081	1.61815	0.02282
0.75399	1.61406	0.02317
0.75716	1.60996	0.02352
0.76034	1.60583	0.02387
0.76352	1.60168	0.02423
0.76669	1.59752	0.02459
0.76987	1.59333	0.02496
0.77304	1.58913	0.02533
0.77621	1.58491	0.02571
0.77939	1.58066	0.02609
0.78256	1.57640	0.02648
0.78573	1.57211	0.02687
0.78890	1.56780	0.02727
0.79207	1.56348	0.02767
0.79524	1.55913	0.02808
0.79841	1.55476	0.02849
0.80158	1.55036	0.02891
0.80475	1.54595	0.02934
0.80792	1.54151	0.02977
0.81109	1.53705	0.03020
0.81425	1.53256	0.03064
0.81742	1.52805	0.03109
0.82058	1.52352	0.03154
0.82375	1.51897	0.03200
0.82691	1.51439	0.03247
0.83008	1.50978	0.03294
0.83324	1.50516	0.03342
0.83641	1.50050	0.03390
0.83957	1.49582	0.03439
0.84273	1.49112	0.03489
0.84589	1.48639	0.03539
0.84905	1.48163	0.03590
0.85221	1.47685	0.03642
0.85537	1.47204	0.03694
0.85853	1.46720	0.03748
0.86169	1.46234	0.03801
0.86484	1.45745	0.03856
0.86800	1.45253	0.03911
0.87116	1.44758	0.03967
0.87431	1.44260	0.04024
0.87747	1.43760	0.04082
0.88062	1.43256	0.04140
0.88377	1.42750	0.04199
0.88693	1.42240	0.04259
0.89008	1.41728	0.04320
0.89323	1.41213	0.04382
0.89638	1.40694	0.04445
0.89953	1.40172	0.04508
0.90268	1.39647	0.04573
0.90583	1.39119	0.04638
0.90898	1.38588	0.04704
0.91212	1.38053	0.04771
0.91527	1.37515	0.04839
0.91842	1.36974	0.04908
0.92156	1.36429	0.04979
0.92470	1.35881	0.05050
0.92785	1.35330	0.05122
0.93099	1.34775	0.05195
0.93413	1.34216	0.05270
0.93728	1.33653	0.05345
0.94042	1.33087	0.05422
0.94356	1.32518	0.05500
0.94669	1.31944	0.05579
0.94983	1.31367	0.05659
0.95297	1.30786	0.05740
0.95611	1.30201	0.05823
0.95924	1.29612	0.05907
0.96238	1.29019	0.05992
0.96551	1.28422	0.06078
0.96865	1.27821	0.06166
0.97178	1.27216	0.06256
0.97491	1.26607	0.06347
0.97804	1.25993	0.06439
0.98117	1.25375	0.06533
0.98430	1.24752	0.06628
0.98743	1.24126	0.06725
0.99056	1.23494	0.06824
0.99369	1.22858	0.06924
0.99681	1.22217	0.07026
0.99994	1.21572	0.07129
1.01681	1.18002	0.07721
1.02367	1.16506	0.07979
1.03052	1.14984	0.08247
1.03738	1.13434	0.08527
1.04423	1.11856	0.08819
1.05109	1.10247	0.09125
1.05795	1.08607	0.09444
1.06480	1.06935	0.09779
1.07166	1.05230	0.10130
1.07851	1.03489	0.10498
1.08537	1.01712	0.10886
1.09223	0.99896	0.11294
1.09908	0.98041	0.11725
1.10594	0.96145	0.12180
1.11280	0.94205	0.12662
1.11965	0.92219	0.13175
1.12651	0.90186	0.13720
1.13337	0.88104	0.14301
1.14022	0.85970	0.14922
1.14708	0.83782	0.15588
1.15394	0.81538	0.16305
1.16080	0.79236	0.17078
1.16766	0.76873	0.17916
1.17452	0.74449	0.18825
1.18138	0.71963	0.19817
1.18824	0.69415	0.20903
1.19510	0.66806	0.22096
1.20196	0.64142	0.23410
1.20883	0.61428	0.24863
1.21569	0.58677	0.26473
1.22255	0.55905	0.28256
1.22942	0.53136	0.30229
1.23628	0.50400	0.32405
1.24315	0.47734	0.34785
1.25001	0.45175	0.37365
1.25688	0.42762	0.40124
1.26375	0.40525	0.43033
1.27062	0.38484	0.46053
1.27749	0.36647	0.49147
1.28436	0.35009	0.52276
1.29123	0.33559	0.55410
1.29810	0.32280	0.58525
1.30497	0.31153	0.61604
1.31185	0.30161	0.64635
1.31872	0.29286	0.67612
1.32560	0.28513	0.70531
1.33248	0.27828	0.73390
1.33935	0.27220	0.76190
1.34623	0.26679	0.78932
1.35311	0.26196	0.81618
1.36000	0.25765	0.84250
1.36688	0.25378	0.86830
1.37376	0.25032	0.89361
1.38065	0.24720	0.91846
1.38753	0.24440	0.94286
1.39442	0.24189	0.96683
1.40131	0.23962	0.99041
1.40820	0.23759	1.01361
1.41509	0.23576	1.03645
1.42199	0.23411	1.05894
1.42888	0.23264	1.08111
1.43578	0.23133	1.10298
1.44267	0.23015	1.12454
1.44957	0.22911	1.14583
1.45647	0.22819	1.16686
1.46337	0.22738	1.18762
1.47028	0.22667	1.20815
1.47718	0.22606	1.22844
1.48409	0.22554	1.24851
1.49100	0.22510	1.26837
1.49791	0.22474	1.28802
1.50482	0.22445	1.30748
1.51173	0.22423	1.32675
1.51865	0.22407	1.34584
1.52556	0.22397	1.36476
1.53248	0.22394	1.38351
1.53940	0.22395	1.40210
1.54633	0.22401	1.42053
1.55325	0.22413	1.43882
1.56018	0.22429	1.45697
1.56711	0.22449	1.47497
1.57404	0.22473	1.49285
1.58097	0.22502	1.51059
1.58790	0.22534	1.52821
1.59484	0.22569	1.54571
1.60178	0.22609	1.56310
1.60872	0.22651	1.58037
1.61566	0.22696	1.59753
1.62260	0.22745	1.61459
1.62955	0.22796	1.63154
1.63650	0.22851	1.64840
1.64345	0.22908	1.66515
1.65040	0.22967	1.68182
1.65736	0.23029	1.69839
1.66432	0.23094	1.71488
1.67128	0.23160	1.73128
1.67824	0.23229	1.74760
1.68520	0.23301	1.76384
