Material: perovskite / CH3NH3PbBr3 / Ishteev
Optical constants. A. Ishteev, K. Konstantinova, G. Ermolaev, D. Kiselev, D. Muratov, M. Voronova, T. Ilina, P. Lagov, O. Uvarov, Y. Pavlov, M. Letovaltseva, A. Arsenin, V. Volkov, S. Didenko, D. Saranin, A. Di Carlo. Investigation of structural and optical properties of MAPbBr3 monocrystals under fast electron irradiation, J. Mater. Chem. C 10, 5821â€“5828 (2022) (Numerical data kindly provided by Georgy Ermolaev)
Comments: Single crystal MAPbBr3.
Specs: {"n_absolute": true, "wavelength_vacuum": true}
wavelength (um)	n	k
0.290	2.08010	0.92328
0.293	2.14889	0.84904
0.296	2.17364	0.83218
0.299	2.17843	0.81926
0.302	2.23365	0.81253
0.305	2.23698	0.77743
0.308	2.26447	0.75716
0.311	2.28712	0.72582
0.314	2.29903	0.69941
0.317	2.31991	0.67126
0.320	2.33331	0.63006
0.323	2.34069	0.60324
0.326	2.33589	0.55325
0.329	2.32355	0.52625
0.332	2.30840	0.49885
0.335	2.28925	0.47975
0.338	2.27008	0.47271
0.341	2.26254	0.46082
0.344	2.25186	0.46212
0.347	2.25253	0.46028
0.350	2.24736	0.45995
0.353	2.25303	0.46096
0.356	2.25886	0.44959
0.359	2.26331	0.44426
0.362	2.25927	0.43815
0.365	2.27266	0.43378
0.368	2.27371	0.41183
0.371	2.27974	0.40158
0.374	2.28594	0.38766
0.377	2.28633	0.38368
0.380	2.29129	0.36374
0.383	2.28567	0.36233
0.386	2.28882	0.34797
0.389	2.28819	0.33411
0.392	2.28611	0.32803
0.395	2.28678	0.31518
0.398	2.28386	0.30767
0.401	2.28116	0.30057
0.404	2.27949	0.28863
0.407	2.27609	0.28185
0.410	2.27254	0.27108
0.413	2.26909	0.26256
0.416	2.26766	0.25650
0.419	2.26313	0.24853
0.422	2.26063	0.24253
0.425	2.25797	0.23375
0.428	2.25287	0.23066
0.431	2.25065	0.22511
0.434	2.24701	0.21980
0.437	2.24286	0.21383
0.440	2.23966	0.20932
0.443	2.23676	0.20152
0.446	2.23406	0.20126
0.449	2.23045	0.19848
0.452	2.22802	0.19362
0.455	2.22394	0.19237
0.458	2.22078	0.18839
0.461	2.21883	0.18551
0.464	2.21542	0.18428
0.467	2.21327	0.18190
0.470	2.21068	0.17912
0.473	2.20851	0.17929
0.476	2.20710	0.17651
0.479	2.20408	0.17676
0.482	2.20286	0.17382
0.485	2.20091	0.17232
0.488	2.19926	0.17471
0.491	2.19828	0.17338
0.494	2.19613	0.17320
0.497	2.19578	0.17395
0.500	2.19545	0.17631
0.503	2.19512	0.18030
0.506	2.19433	0.18283
0.509	2.19531	0.18863
0.512	2.19909	0.19878
0.515	2.20836	0.21233
0.518	2.22453	0.22405
0.521	2.25263	0.23798
0.524	2.29337	0.23895
0.527	2.34230	0.22014
0.530	2.37804	0.17222
0.533	2.38722	0.11128
0.536	2.36987	0.05979
0.539	2.33918	0.02408
0.542	2.30861	0.00443
0.545	2.28349	0.00000
0.548	2.26199	0.00000
0.551	2.24507	0.00000
0.554	2.23051	0.00000
0.557	2.21825	0.00000
0.560	2.20767	0.00000
0.563	2.19827	0.00000
0.566	2.18951	0.00000
0.569	2.18235	0.00000
0.572	2.17577	0.00000
0.575	2.16974	0.00000
0.578	2.16326	0.00000
0.581	2.15812	0.00000
0.584	2.15319	0.00000
0.587	2.14789	0.00000
0.590	2.14434	0.00000
0.593	2.13937	0.00000
0.596	2.13546	0.00000
0.599	2.13120	0.00000
0.602	2.12775	0.00000
0.605	2.12436	0.00000
0.608	2.12085	0.00000
0.611	2.11780	0.00000
0.614	2.11487	0.00000
0.617	2.11198	0.00000
0.620	2.10887	0.00000
0.623	2.10627	0.00073
0.626	2.10410	0.00110
0.629	2.10098	0.00139
0.632	2.09885	0.00124
0.635	2.09650	0.00131
0.638	2.09421	0.00285
0.641	2.09123	0.00067
0.644	2.08921	0.00185
0.647	2.08741	0.00000
0.650	2.08509	0.00345
0.653	2.08377	0.00398
0.656	2.08089	0.00272
0.659	2.07958	0.00321
0.662	2.07739	0.00231
0.665	2.07610	0.00634
0.668	2.07423	0.00388
0.671	2.07252	0.00206
0.674	2.07084	0.00465
0.677	2.07019	0.00406
0.680	2.06858	0.00000
0.683	2.06619	0.00143
0.686	2.06597	0.00488
0.689	2.06297	0.00591
0.692	2.06213	0.00679
0.695	2.06060	0.00233
0.698	2.06036	0.00829
0.701	2.05854	0.00285
0.704	2.05730	0.00000
0.707	2.05656	0.00136
0.710	2.05490	0.00820
0.713	2.05370	0.00664
0.716	2.05236	0.00585
0.719	2.05167	0.00668
0.722	2.05030	0.00857
0.725	2.04951	0.00792
0.728	2.04850	0.00996
0.731	2.04754	0.00908
0.734	2.04670	0.00866
0.737	2.04580	0.00672
0.740	2.04465	0.00867
0.743	2.04416	0.00789
0.746	2.04304	0.00913
0.749	2.04204	0.00772
0.752	2.04029	0.00741
0.755	2.04021	0.00889
0.758	2.03895	0.00838
0.761	2.03813	0.00894
0.764	2.03744	0.00915
0.767	2.03665	0.00796
0.770	2.03633	0.01128
0.773	2.03452	0.00945
0.776	2.03473	0.00828
0.779	2.03377	0.01099
0.782	2.03320	0.01028
0.785	2.03257	0.00847
0.788	2.03150	0.00953
0.791	2.03099	0.01179
0.794	2.03044	0.01032
0.797	2.02914	0.01038
0.800	2.02907	0.01097
0.803	2.02793	0.00992
0.806	2.02781	0.01035
0.809	2.02743	0.01318
0.812	2.02637	0.00929
0.815	2.02608	0.01395
0.818	2.02495	0.01058
0.821	2.02462	0.01176
0.824	2.02427	0.01129
0.827	2.02398	0.01215
0.830	2.02323	0.01224
0.833	2.02300	0.01346
0.836	2.02210	0.01203
0.839	2.02159	0.01281
0.842	2.02095	0.01244
0.845	2.02041	0.01267
0.848	2.01968	0.01197
0.851	2.01930	0.01341
0.854	2.01877	0.01117
0.857	2.01800	0.01282
0.860	2.01791	0.01229
0.863	2.01716	0.01317
0.866	2.01682	0.01361
0.869	2.01657	0.01255
0.872	2.01579	0.01277
0.875	2.01527	0.01314
0.878	2.01488	0.01326
0.881	2.01461	0.01350
0.884	2.01440	0.01353
0.887	2.01412	0.01347
0.890	2.01379	0.01381
0.893	2.01325	0.01371
0.896	2.01287	0.01356
0.899	2.01237	0.01331
0.902	2.01208	0.01365
0.905	2.01174	0.01372
0.908	2.01134	0.01348
0.911	2.01102	0.01366
0.914	2.01059	0.01367
0.917	2.01026	0.01387
0.920	2.01009	0.01365
0.923	2.00990	0.01387
0.926	2.00944	0.01365
0.929	2.00899	0.01367
0.932	2.00866	0.01457
0.935	2.00835	0.01408
0.938	2.00795	0.01390
0.941	2.00776	0.01439
0.944	2.00742	0.01419
0.947	2.00714	0.01437
0.950	2.00687	0.01381
0.953	2.00663	0.01422
0.956	2.00636	0.01421
0.959	2.00606	0.01470
0.962	2.00567	0.01417
0.965	2.00536	0.01436
0.968	2.00511	0.01404
0.971	2.00465	0.01425
0.974	2.00440	0.01449
0.977	2.00423	0.01442
0.980	2.00405	0.01436
0.983	2.00383	0.01468
0.986	2.00362	0.01488
0.989	2.00332	0.01453
0.992	2.00305	0.01413
0.995	2.00296	0.01458
0.998	2.00270	0.01479
1.005	2.00240	0.01362
1.020	2.00136	0.01358
1.035	2.00050	0.02139
1.050	1.99976	0.02351
1.065	1.99862	0.02743
1.080	1.99811	0.02187
1.095	1.99774	0.02432
1.110	1.99710	0.02492
1.125	1.99618	0.02165
1.140	1.99402	0.01520
1.155	1.99422	0.02755
1.170	1.99335	0.01958
1.185	1.99336	0.02633
1.200	1.99239	0.02799
1.215	1.99203	0.03482
1.230	1.99402	0.02396
1.245	1.99221	0.02360
1.260	1.99154	0.02715
1.275	1.99048	0.02498
1.290	1.99062	0.02548
1.305	1.99247	0.03768
1.320	1.98975	0.01980
1.335	1.98920	0.01932
1.350	1.99133	0.02720
1.365	1.98958	0.01854
1.380	1.98693	0.02442
1.395	1.98647	0.03359
1.410	1.98828	0.02000
1.425	1.98757	0.03255
1.440	1.98628	0.02293
1.455	1.98563	0.02202
1.470	1.98630	0.02670
1.485	1.98559	0.03219
1.500	1.98501	0.03335
1.515	1.98631	0.03396
1.530	1.98610	0.03419
1.545	1.98458	0.02823
1.560	1.98584	0.02445
1.575	1.98448	0.01713
1.590	1.98492	0.03131
1.605	1.98409	0.00993
1.620	1.98546	0.03101
1.635	1.98446	0.03319
1.650	1.98332	0.01793
1.665	1.98272	0.04177
1.680	1.98501	0.03324
1.695	1.98404	0.01498
1.710	1.98276	0.02232
1.725	1.98311	0.01678
1.740	1.98333	0.02068
1.755	1.98349	0.02042
1.770	1.98344	0.02625
1.785	1.98226	0.02468
1.800	1.98181	0.02402
1.815	1.98267	0.02941
1.830	1.98273	0.01872
1.845	1.98149	0.02429
1.860	1.98319	0.02505
1.875	1.98254	0.02884
1.890	1.98011	0.02210
1.905	1.98094	0.02454
1.920	1.98203	0.02576
1.935	1.98229	0.02604
1.950	1.98071	0.02361
1.965	1.98048	0.02534
1.980	1.98046	0.02828
1.995	1.98043	0.02546
2.020	1.98042	0.02665
2.050	1.97942	0.02820
2.080	1.97945	0.02145
2.110	1.97987	0.02488
2.140	1.97993	0.02914
2.170	1.97985	0.01798
2.200	1.97961	0.02316
2.230	1.97793	0.02641
2.260	1.97872	0.02123
2.290	1.97776	0.02763
2.320	1.97902	0.02366
2.350	1.97806	0.02275
2.380	1.97663	0.02209
2.410	1.97593	0.03181
2.440	1.97401	0.01923
2.470	1.97174	0.02829
2.500	1.97317	0.03763
2.530	1.97376	0.02118
2.560	1.97177	0.02199
2.590	1.96938	0.04922
2.620	1.97241	0.02004
2.650	1.97104	0.04425
2.680	1.96870	0.01473
2.710	1.97188	0.04647
2.740	1.97075	0.08235
2.770	1.96867	0.04101
2.800	1.96645	0.05707
2.830	1.96622	0.04814
2.860	1.96305	0.04983
2.890	1.96140	0.02550
2.920	1.96002	0.03656
2.950	1.95451	0.02941
2.980	1.95135	0.02027
3.010	1.94516	0.02887
3.040	1.93321	0.04399
3.070	1.92387	0.05928
3.100	1.92750	0.07337
3.130	1.95887	0.10159
3.160	1.97990	0.08983
3.190	2.00027	0.10390
3.220	2.01404	0.07914
3.250	2.01862	0.06000
3.280	2.01019	0.07637
