Material: main / KBr / VanderLinden
Optical constants. R. Van der Linden, N. Kuzkova, P. M. Kraus. Nonlinear refractive index measurements of solids and the impact of B-integral on the phase of generated high-order harmonics. Opt. Express 33, 53268 (2025)
Comments: 47 fs. Common-path interferometry.
Conditions: {"n2_method": "CPI", "pulse_duration": "47e-15"}
wavelength (um)	n	2
0.804	8.98e-20
