Material: alloys / Pd-H / Palm
Optical constants. K. J. Palm, J. B. Murray, T. C. Narayan, J. N. Munday. Dynamic optical properties of metal hydrides, ACS Photonics 5, 4677-4686 (2018)(Numerical data kindly provided by Kevin Palm)
Comments: Palladium Hydride, Under 7 bar H2 gas, Room temperature, 200 nm thin film, electron beam evaporated, vacuum annealed 2 hr 350 Â°C.
wavelength (um)	n	k
0.250019531	1.363482	1.323541
0.253212234	1.363138	1.36002
0.256404968	1.364811	1.395166
0.259597809	1.367734	1.428995
0.262790649	1.371536	1.461746
0.265983551	1.376019	1.493572
0.269176483	1.381039	1.524585
0.272369446	1.38648	1.554881
0.275562469	1.392234	1.584563
0.278755524	1.398251	1.613771
0.281948608	1.404549	1.642607
0.285141693	1.411164	1.671129
0.288334839	1.418143	1.699367
0.291527985	1.425536	1.727321
0.29472113	1.43341	1.754958
0.297914307	1.441814	1.782154
0.301107483	1.450668	1.808766
0.30430069	1.459843	1.834724
0.307493866	1.469202	1.860005
0.310687073	1.478606	1.884624
0.31388028	1.48791	1.908626
0.317073456	1.496961	1.932099
0.320266632	1.505578	1.95523
0.323459808	1.51375	1.978365
0.326652954	1.521653	2.001739
0.32984613	1.529491	2.02548
0.333039246	1.537478	2.049647
0.33623233	1.545828	2.074243
0.339425385	1.55475	2.099223
0.342618439	1.564457	2.124495
0.345811462	1.575173	2.149904
0.349004425	1.587135	2.17513
0.352197357	1.600302	2.199718
0.355390259	1.614467	2.223373
0.358583099	1.629399	2.245915
0.361775909	1.644864	2.267232
0.364968658	1.660635	2.287268
0.368161346	1.676492	2.306008
0.371353973	1.692225	2.323472
0.37454657	1.70763	2.339711
0.377739075	1.722501	2.354809
0.380931549	1.736619	2.368909
0.384123932	1.749831	2.38229
0.387316223	1.762154	2.395208
0.390508484	1.77365	2.407842
0.393700623	1.784392	2.420327
0.396892731	1.794461	2.432764
0.400084717	1.803938	2.445232
0.403276642	1.812906	2.457791
0.406468445	1.821448	2.470482
0.409660156	1.829645	2.483333
0.412851807	1.837577	2.496359
0.416043304	1.845327	2.50956
0.419234772	1.852977	2.522923
0.422426086	1.860618	2.5364
0.425617279	1.868297	2.549895
0.428808411	1.876006	2.563333
0.43199942	1.883725	2.576664
0.435190277	1.89143	2.589851
0.438381012	1.899094	2.602867
0.441571625	1.906688	2.615695
0.444762146	1.914185	2.628325
0.447952545	1.921555	2.640749
0.451142761	1.928772	2.652966
0.454332855	1.935807	2.664979
0.457522858	1.942633	2.676797
0.460712708	1.949223	2.688427
0.463902405	1.95555	2.699885
0.467091888	1.961586	2.71119
0.470281311	1.9673	2.722365
0.47347052	1.972658	2.733454
0.476659607	1.977655	2.744518
0.479848541	1.982305	2.755603
0.483037292	1.986627	2.766747
0.486225891	1.990642	2.777977
0.489414307	1.994373	2.789317
0.492602539	1.997841	2.800785
0.495790619	2.00107	2.812397
0.498978516	2.00408	2.824164
0.50216626	2.006892	2.836097
0.505353821	2.009528	2.848202
0.508541168	2.012008	2.860484
0.511728333	2.01435	2.872947
0.514915283	2.016572	2.885593
0.518102051	2.018694	2.898423
0.521288696	2.020731	2.911435
0.524475037	2.0227	2.924628
0.527661255	2.024616	2.938
0.530847168	2.026495	2.951546
0.534032959	2.02835	2.965262
0.537218506	2.030196	2.97914
0.540403809	2.032043	2.993173
0.543588928	2.033901	3.007351
0.546773804	2.035778	3.021668
0.549958496	2.037679	3.036116
0.553142944	2.039613	3.050688
0.556327148	2.041583	3.065378
0.559511108	2.043595	3.080178
0.562694824	2.045655	3.095083
0.565878296	2.047765	3.110085
0.569061646	2.049929	3.12518
0.572244629	2.052152	3.14036
0.575427368	2.054436	3.15562
0.578609863	2.056784	3.170954
0.581792114	2.059198	3.186357
0.584974121	2.06168	3.201822
0.588155884	2.064231	3.217345
0.591337341	2.066854	3.23292
0.594518555	2.06955	3.248543
0.597699524	2.072319	3.264207
0.600880188	2.075163	3.279908
0.604060608	2.078082	3.295642
0.607240723	2.081077	3.311403
0.610420532	2.084147	3.327188
0.613600098	2.087295	3.34299
0.616779358	2.090518	3.358807
0.619958374	2.093818	3.374634
0.623137024	2.097196	3.390465
0.62631543	2.100648	3.406296
0.62949353	2.104175	3.422122
0.632671265	2.107774	3.437938
0.635848755	2.111442	3.453741
0.639026001	2.11518	3.469528
0.64220282	2.118983	3.485296
0.645379395	2.122851	3.501042
0.648555664	2.126781	3.516763
0.651731567	2.13077	3.532457
0.654907166	2.134817	3.548121
0.658082458	2.13892	3.563754
0.661257446	2.143077	3.579353
0.664432007	2.147285	3.594918
0.667606323	2.151542	3.610445
0.670780273	2.155847	3.625935
0.673953857	2.160196	3.641385
0.677127136	2.164589	3.656794
0.680300049	2.169023	3.672161
0.683472656	2.173496	3.687486
0.686644897	2.178007	3.702768
0.689816772	2.182552	3.718005
0.69298822	2.18713	3.733197
0.696159424	2.191741	3.748343
0.6993302	2.19638	3.763444
0.70250061	2.201048	3.778498
0.705670715	2.205741	3.793505
0.708840393	2.210458	3.808465
0.712009705	2.215198	3.823379
0.715178589	2.219958	3.838244
0.718347168	2.224737	3.853063
0.721515381	2.229533	3.867835
0.724683167	2.234345	3.88256
0.727850525	2.23917	3.897238
0.731017578	2.244008	3.911871
0.734184204	2.248856	3.926458
0.737350403	2.253712	3.941
0.740516235	2.258575	3.9555
0.743681641	2.263445	3.969958
0.746846619	2.268321	3.984377
0.75001123	2.273202	3.998756
0.753175415	2.27809	4.013098
0.756339233	2.282984	4.027402
0.759502563	2.287885	4.041669
0.762665527	2.292791	4.055899
0.765828003	2.297703	4.070093
0.768990112	2.302621	4.084251
0.772151733	2.307545	4.098373
0.775312988	2.312474	4.112459
0.778473755	2.31741	4.12651
0.781634155	2.322352	4.140526
0.784794067	2.327299	4.154506
0.787953552	2.332252	4.168451
0.79111261	2.33721	4.182361
0.794271118	2.342173	4.196235
0.797429321	2.347142	4.210074
0.800586975	2.352116	4.223877
0.803744202	2.357095	4.237646
0.80690094	2.362079	4.251379
0.810057251	2.367068	4.265076
0.813213013	2.372061	4.278738
0.816368408	2.377059	4.292364
0.819523254	2.38206	4.305954
0.822677734	2.387066	4.319509
0.825831665	2.392075	4.333027
0.828985046	2.397087	4.34651
0.832138062	2.402104	4.359957
0.835290527	2.407123	4.373367
0.838442505	2.412144	4.386741
0.841594055	2.417169	4.400079
0.844744995	2.422196	4.413381
0.847895508	2.427225	4.426645
0.851045593	2.432256	4.439874
0.854195007	2.437289	4.453065
0.857344055	2.442323	4.46622
0.860492554	2.447358	4.479338
0.863640503	2.452394	4.492419
0.866787964	2.457431	4.505463
0.869934937	2.462468	4.51847
0.87308136	2.467506	4.53144
0.876227356	2.472543	4.544372
0.879372681	2.477581	4.557267
0.882517456	2.482617	4.570125
0.885661804	2.487653	4.582944
0.888805664	2.492688	4.595727
0.891948914	2.497722	4.608472
0.895091614	2.502754	4.621178
0.898233765	2.507785	4.633847
0.901375366	2.512814	4.646477
0.904516479	2.517841	4.65907
0.907656921	2.522866	4.671622
0.910796997	2.527889	4.684136
0.91393634	2.53291	4.69661
0.917075195	2.537927	4.709044
0.920213501	2.542939	4.721437
0.923351257	2.547948	4.733789
0.926488403	2.552951	4.7461
0.929625	2.557948	4.75837
0.932760925	2.562937	4.770599
0.935896362	2.56792	4.782788
0.93903125	2.572895	4.794935
0.942165527	2.577861	4.807041
0.945299194	2.582818	4.819107
0.948432312	2.587765	4.831131
0.951564819	2.592701	4.843116
0.954696777	2.597627	4.85506
0.957828125	2.602541	4.866963
0.960958801	2.607443	4.878827
0.964088989	2.612332	4.89065
0.967218445	2.617208	4.902434
0.970347351	2.62207	4.914179
0.973475708	2.626919	4.925885
0.976603333	2.631752	4.937551
0.979730347	2.63657	4.94918
0.982856812	2.641373	4.96077
0.985982727	2.64616	4.972322
0.98910791	2.650931	4.983836
0.992232544	2.655685	4.995313
0.995356445	2.660421	5.006752
0.998479797	2.665141	5.018156
1.014837524	2.68957	5.077326
1.021614868	2.699544	5.101578
1.028394165	2.70943	5.125687
1.035175293	2.719224	5.149657
1.041958252	2.728923	5.17349
1.048743286	2.738527	5.197191
1.055530029	2.748031	5.220762
1.062318848	2.757434	5.244206
1.069109497	2.766734	5.267529
1.075901978	2.775928	5.290731
1.082696411	2.785017	5.313818
1.089492676	2.793997	5.336791
1.096290894	2.802867	5.359655
1.103091064	2.811627	5.382412
1.109893066	2.820274	5.405066
1.116697021	2.828809	5.42762
1.123502686	2.83723	5.450077
1.130310425	2.845536	5.472439
1.137119995	2.853726	5.494711
1.143931396	2.8618	5.516895
1.150744873	2.869758	5.538994
1.157560059	2.877599	5.56101
1.164377197	2.885323	5.582947
1.171196289	2.892928	5.604807
1.178017212	2.900416	5.626594
1.184840088	2.907785	5.648309
1.191664795	2.915037	5.669956
1.198491455	2.92217	5.691536
1.205319946	2.929186	5.713054
1.212150269	2.936083	5.734511
1.218982666	2.942863	5.755909
1.225816772	2.949526	5.777252
1.232652954	2.956072	5.79854
1.239490845	2.962501	5.819777
1.246330811	2.968814	5.840964
1.253172485	2.975011	5.862103
1.260016113	2.981093	5.883198
1.266861572	2.98706	5.904249
1.273709106	2.992912	5.925259
1.28055835	2.998651	5.94623
1.287409668	3.004277	5.967163
1.294262695	3.00979	5.98806
1.301117676	3.015191	6.008923
1.307974609	3.02048	6.029754
1.314833374	3.025659	6.050555
1.321694092	3.030728	6.071326
1.328556519	3.035688	6.09207
1.335421021	3.04054	6.112788
1.342287354	3.045283	6.133482
1.349155518	3.049919	6.154153
1.356025635	3.054449	6.174803
1.362897705	3.058874	6.195432
1.369771606	3.063194	6.216043
1.376647339	3.06741	6.236636
1.383525024	3.071523	6.257213
1.390404541	3.075534	6.277775
1.397285889	3.079444	6.298323
1.404169312	3.083253	6.318858
1.411054443	3.086963	6.339382
1.41794165	3.090574	6.359895
1.424830688	3.094087	6.380399
1.431721436	3.097503	6.400894
1.438614258	3.100824	6.421381
1.445508911	3.104049	6.441862
1.452405518	3.10718	6.462337
1.459303955	3.110218	6.482806
1.466204224	3.113164	6.503272
1.473106323	3.116019	6.523733
1.480010498	3.118783	6.544193
1.486916382	3.121457	6.56465
1.493824341	3.124044	6.585105
1.500734131	3.126543	6.60556
1.507645752	3.128955	6.626014
1.514559204	3.131283	6.646469
1.521474609	3.133526	6.666924
1.528391846	3.135685	6.68738
1.535311035	3.137762	6.707838
1.542232056	3.139758	6.728297
1.549155029	3.141674	6.748759
1.556079834	3.14351	6.769223
1.563006592	3.145268	6.789689
1.569935181	3.146949	6.810158
1.576865601	3.148554	6.83063
1.583797974	3.150084	6.851104
1.590732178	3.151541	6.871581
1.597668335	3.152925	6.892061
1.604606323	3.154238	6.912543
1.611546143	3.15548	6.933027
1.618488037	3.156653	6.953513
1.625431641	3.157758	6.974
1.632377197	3.158797	6.994489
1.639324585	3.15977	7.014977
1.646274048	3.16068	7.035465
1.65322522	3.161527	7.055951
1.660178101	3.162313	7.076433
1.667133179	3.163039	7.096912
1.674090088	3.163708	7.117385
1.681048584	3.164321	7.137849
