Material: main / BaTiO3 / Johnston-clamped
Optical constants. A. R. Johnston. Dispersion of electro‚Äêoptic effect in BaTiO3. J. Appl. Phys. 42, 3501-3507 (1971)
Comments: Crystalline BaTiO3. Clamped measurements.
wavelength (um)	n	k
4.0000e-01	2.6122e+00	3.3864e-01
4.0606e-01	2.5978e+00	3.2693e-01
4.1212e-01	2.5845e+00	3.1622e-01
4.1818e-01	2.5721e+00	3.0639e-01
4.2424e-01	2.5606e+00	2.9732e-01
4.3030e-01	2.5499e+00	2.8891e-01
4.3636e-01	2.5399e+00	2.8110e-01
4.4242e-01	2.5305e+00	2.7381e-01
4.4848e-01	2.5218e+00	2.6699e-01
4.5455e-01	2.5136e+00	2.6059e-01
4.6061e-01	2.5058e+00	2.5456e-01
4.6667e-01	2.4986e+00	2.4888e-01
4.7273e-01	2.4917e+00	2.4350e-01
4.7879e-01	2.4852e+00	2.3841e-01
4.8485e-01	2.4791e+00	2.3358e-01
4.9091e-01	2.4733e+00	2.2898e-01
4.9697e-01	2.4678e+00	2.2460e-01
5.0303e-01	2.4626e+00	2.2041e-01
5.0909e-01	2.4576e+00	2.1642e-01
5.1515e-01	2.4529e+00	2.1259e-01
5.2121e-01	2.4484e+00	2.0893e-01
5.2727e-01	2.4442e+00	2.0541e-01
5.3333e-01	2.4401e+00	2.0203e-01
5.3939e-01	2.4362e+00	1.9879e-01
5.4545e-01	2.4325e+00	1.9566e-01
5.5152e-01	2.4289e+00	1.9264e-01
5.5758e-01	2.4255e+00	1.8974e-01
5.6364e-01	2.4222e+00	1.8693e-01
5.6970e-01	2.4191e+00	1.8422e-01
5.7576e-01	2.4161e+00	1.8160e-01
5.8182e-01	2.4132e+00	1.7906e-01
5.8788e-01	2.4105e+00	1.7661e-01
5.9394e-01	2.4078e+00	1.7423e-01
6.0000e-01	2.4053e+00	1.7192e-01
6.0606e-01	2.4028e+00	1.6968e-01
6.1212e-01	2.4004e+00	1.6751e-01
6.1818e-01	2.3982e+00	1.6540e-01
6.2424e-01	2.3960e+00	1.6335e-01
6.3030e-01	2.3938e+00	1.6135e-01
6.3636e-01	2.3918e+00	1.5941e-01
6.4242e-01	2.3898e+00	1.5752e-01
6.4848e-01	2.3879e+00	1.5568e-01
6.5455e-01	2.3861e+00	1.5389e-01
6.6061e-01	2.3843e+00	1.5214e-01
6.6667e-01	2.3826e+00	1.5044e-01
6.7273e-01	2.3809e+00	1.4877e-01
6.7879e-01	2.3793e+00	1.4715e-01
6.8485e-01	2.3777e+00	1.4557e-01
6.9091e-01	2.3762e+00	1.4402e-01
6.9697e-01	2.3747e+00	1.4251e-01
7.0303e-01	2.3733e+00	1.4104e-01
7.0909e-01	2.3719e+00	1.3959e-01
7.1515e-01	2.3706e+00	1.3818e-01
7.2121e-01	2.3693e+00	1.3680e-01
7.2727e-01	2.3680e+00	1.3545e-01
7.3333e-01	2.3668e+00	1.3413e-01
7.3939e-01	2.3656e+00	1.3284e-01
7.4545e-01	2.3644e+00	1.3157e-01
7.5152e-01	2.3633e+00	1.3033e-01
7.5758e-01	2.3622e+00	1.2911e-01
7.6364e-01	2.3611e+00	1.2792e-01
7.6970e-01	2.3601e+00	1.2675e-01
7.7576e-01	2.3591e+00	1.2560e-01
7.8182e-01	2.3581e+00	1.2448e-01
7.8788e-01	2.3572e+00	1.2338e-01
7.9394e-01	2.3562e+00	1.2230e-01
8.0000e-01	2.3553e+00	1.2123e-01
8.0606e-01	2.3544e+00	1.2019e-01
8.1212e-01	2.3536e+00	1.1917e-01
8.1818e-01	2.3527e+00	1.1816e-01
8.2424e-01	2.3519e+00	1.1718e-01
8.3030e-01	2.3511e+00	1.1621e-01
8.3636e-01	2.3503e+00	1.1526e-01
8.4242e-01	2.3496e+00	1.1432e-01
8.4848e-01	2.3488e+00	1.1340e-01
8.5455e-01	2.3481e+00	1.1250e-01
8.6061e-01	2.3474e+00	1.1161e-01
8.6667e-01	2.3467e+00	1.1073e-01
8.7273e-01	2.3460e+00	1.0987e-01
8.7879e-01	2.3454e+00	1.0903e-01
8.8485e-01	2.3447e+00	1.0819e-01
8.9091e-01	2.3441e+00	1.0737e-01
8.9697e-01	2.3435e+00	1.0657e-01
9.0303e-01	2.3429e+00	1.0577e-01
9.0909e-01	2.3423e+00	1.0499e-01
9.1515e-01	2.3417e+00	1.0422e-01
9.2121e-01	2.3411e+00	1.0347e-01
9.2727e-01	2.3406e+00	1.0272e-01
9.3333e-01	2.3400e+00	1.0199e-01
9.3939e-01	2.3395e+00	1.0126e-01
9.4545e-01	2.3390e+00	1.0055e-01
9.5152e-01	2.3385e+00	9.9847e-02
9.5758e-01	2.3380e+00	9.9155e-02
9.6364e-01	2.3375e+00	9.8473e-02
9.6970e-01	2.3370e+00	9.7800e-02
9.7576e-01	2.3365e+00	9.7137e-02
9.8182e-01	2.3361e+00	9.6483e-02
9.8788e-01	2.3356e+00	9.5839e-02
9.9394e-01	2.3352e+00	9.5203e-02
1.0000e+00	2.3348e+00	9.4576e-02
