Material: main / BaTiO3 / Timpu
Optical constants. F. Timpu, M. R. Escal√©, M. Timofeeva, N. Strkalj, M. Trassin, M. Fiebig, R. Grange. Enhanced nonlinear yield from barium titanate metasurface down to the near ultraviolet. Adv. Opt. Mater. 7, 1900936 (2019)
Comments: PLD Grown BaTiO3, digitized plot
wavelength (um)	n
3.5000e-01	2.6629e+00
3.5302e-01	2.6568e+00
3.5604e-01	2.6447e+00
3.5906e-01	2.6329e+00
3.6208e-01	2.6201e+00
3.6510e-01	2.6087e+00
3.6812e-01	2.5983e+00
3.7114e-01	2.5882e+00
3.7416e-01	2.5777e+00
3.7718e-01	2.5679e+00
3.8020e-01	2.5586e+00
3.8322e-01	2.5500e+00
3.8624e-01	2.5413e+00
3.8926e-01	2.5327e+00
3.9228e-01	2.5254e+00
3.9530e-01	2.5181e+00
3.9832e-01	2.5108e+00
4.0134e-01	2.5039e+00
4.0436e-01	2.4981e+00
4.0738e-01	2.4922e+00
4.1040e-01	2.4858e+00
4.1342e-01	2.4794e+00
4.1644e-01	2.4732e+00
4.1946e-01	2.4670e+00
4.2248e-01	2.4615e+00
4.2550e-01	2.4560e+00
4.2852e-01	2.4506e+00
4.3154e-01	2.4452e+00
4.3456e-01	2.4400e+00
4.3758e-01	2.4350e+00
4.4060e-01	2.4301e+00
4.4362e-01	2.4256e+00
4.4664e-01	2.4210e+00
4.4966e-01	2.4164e+00
4.5268e-01	2.4119e+00
4.5570e-01	2.4079e+00
4.5872e-01	2.4040e+00
4.6174e-01	2.4000e+00
4.6477e-01	2.3960e+00
4.6779e-01	2.3922e+00
4.7081e-01	2.3886e+00
4.7383e-01	2.3850e+00
4.7685e-01	2.3815e+00
4.7987e-01	2.3780e+00
4.8289e-01	2.3746e+00
4.8591e-01	2.3713e+00
4.8893e-01	2.3681e+00
4.9195e-01	2.3650e+00
4.9497e-01	2.3620e+00
4.9799e-01	2.3589e+00
5.0101e-01	2.3560e+00
5.0403e-01	2.3531e+00
5.0705e-01	2.3504e+00
5.1007e-01	2.3478e+00
5.1309e-01	2.3452e+00
5.1611e-01	2.3424e+00
5.1913e-01	2.3398e+00
5.2215e-01	2.3375e+00
5.2517e-01	2.3352e+00
5.2819e-01	2.3329e+00
5.3121e-01	2.3305e+00
5.3423e-01	2.3281e+00
5.3725e-01	2.3258e+00
5.4027e-01	2.3236e+00
5.4329e-01	2.3215e+00
5.4631e-01	2.3194e+00
5.4933e-01	2.3173e+00
5.5235e-01	2.3153e+00
5.5537e-01	2.3134e+00
5.5839e-01	2.3114e+00
5.6141e-01	2.3094e+00
5.6443e-01	2.3075e+00
5.6745e-01	2.3056e+00
5.7047e-01	2.3038e+00
5.7349e-01	2.3022e+00
5.7651e-01	2.3005e+00
5.7953e-01	2.2988e+00
5.8255e-01	2.2970e+00
5.8557e-01	2.2954e+00
5.8859e-01	2.2938e+00
5.9161e-01	2.2923e+00
5.9463e-01	2.2908e+00
5.9765e-01	2.2892e+00
6.0067e-01	2.2875e+00
6.0369e-01	2.2858e+00
6.0671e-01	2.2846e+00
6.0973e-01	2.2833e+00
6.1275e-01	2.2820e+00
6.1577e-01	2.2806e+00
6.1879e-01	2.2794e+00
6.2181e-01	2.2782e+00
6.2483e-01	2.2769e+00
6.2785e-01	2.2755e+00
6.3087e-01	2.2741e+00
6.3389e-01	2.2727e+00
6.3691e-01	2.2714e+00
6.3993e-01	2.2703e+00
6.4295e-01	2.2693e+00
6.4597e-01	2.2681e+00
6.4899e-01	2.2670e+00
6.5201e-01	2.2659e+00
6.5503e-01	2.2647e+00
6.5805e-01	2.2636e+00
6.6107e-01	2.2624e+00
6.6409e-01	2.2614e+00
6.6711e-01	2.2604e+00
6.7013e-01	2.2594e+00
6.7315e-01	2.2584e+00
6.7617e-01	2.2574e+00
6.7919e-01	2.2564e+00
6.8221e-01	2.2554e+00
6.8523e-01	2.2545e+00
6.8826e-01	2.2536e+00
6.9128e-01	2.2525e+00
6.9430e-01	2.2513e+00
6.9732e-01	2.2506e+00
7.0034e-01	2.2500e+00
7.0336e-01	2.2492e+00
7.0638e-01	2.2482e+00
7.0940e-01	2.2472e+00
7.1242e-01	2.2464e+00
7.1544e-01	2.2456e+00
7.1846e-01	2.2448e+00
7.2148e-01	2.2441e+00
7.2450e-01	2.2432e+00
7.2752e-01	2.2424e+00
7.3054e-01	2.2416e+00
7.3356e-01	2.2409e+00
7.3658e-01	2.2403e+00
7.3960e-01	2.2398e+00
7.4262e-01	2.2389e+00
7.4564e-01	2.2379e+00
7.4866e-01	2.2371e+00
7.5168e-01	2.2364e+00
7.5470e-01	2.2358e+00
7.5772e-01	2.2353e+00
7.6074e-01	2.2348e+00
7.6376e-01	2.2339e+00
7.6678e-01	2.2331e+00
7.6980e-01	2.2323e+00
7.7282e-01	2.2315e+00
7.7584e-01	2.2310e+00
7.7886e-01	2.2306e+00
7.8188e-01	2.2301e+00
7.8490e-01	2.2296e+00
7.8792e-01	2.2290e+00
7.9094e-01	2.2283e+00
7.9396e-01	2.2278e+00
7.9698e-01	2.2275e+00
8.0000e-01	2.2274e+00
