Material: main / Si / Karaman-120C
Optical constants. O. C. Karaman, G. N. Naidu, A. R. Bowman, E. N. Dayi, G. Tagliabue. Decoupling optical and thermal dynamics in dielectric metasurfaces for self-encoded photonic control. Laser Photonics Rev., e01014 (2025) (Numerical data kindly provided by Omer Can Karaman)
Comments: Amorphous silicon (a-Si), 120 Â°C. 100 nm film on fused silica substrate.
Conditions: {"temperature": 393, "film_thickness": "100e-9", "substrate": "SiO2"}
wavelength (um)	n	k
0.210	1.083522	2.946321
0.213	1.130396	3.000409
0.216	1.179157	3.054155
0.219	1.229865	3.107486
0.222	1.282579	3.160320
0.225	1.337359	3.212569
0.228	1.394258	3.264133
0.231	1.453330	3.314908
0.234	1.514623	3.364775
0.237	1.578178	3.413610
0.240	1.644033	3.461278
0.243	1.712215	3.507632
0.246	1.782744	3.552519
0.249	1.855628	3.595775
0.252	1.930863	3.637227
0.255	2.008432	3.676695
0.258	2.088302	3.713990
0.261	2.170424	3.748920
0.264	2.254727	3.781287
0.267	2.341125	3.810891
0.270	2.429506	3.837531
0.273	2.519738	3.861010
0.276	2.611665	3.881134
0.279	2.705109	3.897719
0.282	2.799866	3.910591
0.285	2.895711	3.919593
0.288	2.992397	3.924584
0.291	3.089656	3.925446
0.294	3.187204	3.922085
0.297	3.284741	3.914435
0.300	3.381957	3.902461
0.303	3.478534	3.886160
0.306	3.574151	3.865562
0.309	3.668490	3.840732
0.312	3.761237	3.811768
0.315	3.852093	3.778802
0.318	3.940770	3.741996
0.321	4.027004	3.701542
0.324	4.110552	3.657658
0.327	4.191197	3.610582
0.330	4.268754	3.560571
0.333	4.343063	3.507896
0.336	4.414000	3.452837
0.339	4.481469	3.395678
0.342	4.545408	3.336706
0.345	4.605781	3.276202
0.348	4.662582	3.214442
0.351	4.715831	3.151693
0.354	4.765570	3.088207
0.357	4.811862	3.024226
0.360	4.854790	2.959971
0.363	4.894448	2.895651
0.366	4.930947	2.831455
0.369	4.964405	2.767553
0.372	4.994949	2.704101
0.375	5.022711	2.641234
0.378	5.047826	2.579073
0.381	5.070430	2.517722
0.384	5.090662	2.457268
0.387	5.108654	2.397789
0.390	5.124542	2.339345
0.393	5.138454	2.281987
0.396	5.150516	2.225755
0.399	5.160849	2.170679
0.402	5.169569	2.116779
0.405	5.176787	2.064070
0.408	5.182608	2.012558
0.411	5.187132	1.962244
0.414	5.190453	1.913125
0.417	5.192660	1.865191
0.420	5.193836	1.818431
0.423	5.194059	1.772828
0.426	5.193404	1.728365
0.429	5.191936	1.685022
0.432	5.189721	1.642776
0.435	5.186818	1.601604
0.438	5.183281	1.561482
0.441	5.179163	1.522385
0.444	5.174510	1.484286
0.447	5.169365	1.447160
0.450	5.163772	1.410982
0.453	5.157765	1.375723
0.456	5.151381	1.341360
0.459	5.144652	1.307866
0.462	5.137607	1.275215
0.465	5.130273	1.243384
0.468	5.122676	1.212348
0.471	5.114840	1.182082
0.474	5.106785	1.152564
0.477	5.098531	1.123771
0.480	5.090097	1.095682
0.483	5.081499	1.068274
0.486	5.072753	1.041529
0.489	5.063873	1.015424
0.492	5.054872	0.989942
0.495	5.045762	0.965064
0.498	5.036554	0.940772
0.501	5.027258	0.917048
0.504	5.017884	0.893876
0.507	5.008440	0.871240
0.510	4.998935	0.849124
0.513	4.989375	0.827514
0.516	4.979767	0.806395
0.519	4.970117	0.785754
0.522	4.960432	0.765577
0.525	4.950716	0.745853
0.528	4.940974	0.726567
0.531	4.931211	0.707710
0.534	4.921431	0.689269
0.537	4.911637	0.671235
0.540	4.901834	0.653596
0.543	4.892024	0.636343
0.546	4.882211	0.619466
0.549	4.872397	0.602955
0.552	4.862586	0.586804
0.555	4.852778	0.571001
0.558	4.842978	0.555541
0.561	4.833188	0.540414
0.564	4.823408	0.525614
0.567	4.813641	0.511132
0.570	4.803889	0.496963
0.573	4.794154	0.483099
0.576	4.784437	0.469534
0.579	4.774739	0.456262
0.582	4.765063	0.443276
0.585	4.755410	0.430572
0.588	4.745780	0.418143
0.591	4.736177	0.405984
0.594	4.726600	0.394090
0.597	4.717050	0.382456
0.600	4.707530	0.371077
0.603	4.698040	0.359948
0.606	4.688582	0.349065
0.609	4.679156	0.338423
0.612	4.669764	0.328018
0.615	4.660406	0.317846
0.618	4.651084	0.307903
0.621	4.641799	0.298185
0.624	4.632552	0.288688
0.627	4.623344	0.279409
0.630	4.614176	0.270343
0.633	4.605049	0.261487
0.636	4.595963	0.252838
0.639	4.586920	0.244393
0.642	4.577921	0.236148
0.645	4.568967	0.228099
0.648	4.560059	0.220244
0.651	4.551198	0.212580
0.654	4.542383	0.205103
0.657	4.533617	0.197810
0.660	4.524901	0.190699
0.663	4.516236	0.183767
0.666	4.507621	0.177010
0.669	4.499059	0.170427
0.672	4.490549	0.164013
0.675	4.482093	0.157767
0.678	4.473692	0.151686
0.681	4.465347	0.145767
0.684	4.457058	0.140007
0.687	4.448826	0.134404
0.690	4.440652	0.128956
0.693	4.432537	0.123659
0.696	4.424480	0.118511
0.699	4.416485	0.113510
0.702	4.408550	0.108654
0.705	4.400677	0.103939
0.708	4.392866	0.099364
0.711	4.385118	0.094925
0.714	4.377434	0.090621
0.717	4.369814	0.086450
0.720	4.362259	0.082408
0.723	4.354770	0.078494
0.726	4.347346	0.074706
0.729	4.339990	0.071040
0.732	4.332700	0.067495
0.735	4.325478	0.064069
0.738	4.318324	0.060759
0.741	4.311238	0.057563
0.744	4.304222	0.054479
0.747	4.297276	0.051504
0.750	4.290399	0.048638
0.753	4.283592	0.045877
0.756	4.276855	0.043219
0.759	4.270191	0.040662
0.762	4.263597	0.038205
0.765	4.257074	0.035845
0.768	4.250624	0.033579
0.771	4.244245	0.031408
0.774	4.237939	0.029327
0.777	4.231705	0.027335
0.780	4.225544	0.025430
0.783	4.219456	0.023611
0.786	4.213440	0.021875
0.789	4.207499	0.020221
0.792	4.201630	0.018646
0.795	4.195834	0.017149
0.798	4.190112	0.015728
0.801	4.184464	0.014380
0.804	4.178889	0.013106
0.807	4.173388	0.011902
0.810	4.167961	0.010766
0.813	4.162607	0.009698
0.816	4.157327	0.008696
0.819	4.152121	0.007757
0.822	4.146989	0.006880
0.825	4.141931	0.006064
0.828	4.136947	0.005307
0.831	4.132037	0.004607
0.834	4.127201	0.003963
0.837	4.122438	0.003373
0.840	4.117751	0.002836
0.843	4.113138	0.002351
0.846	4.108599	0.001915
0.849	4.104135	0.001528
0.852	4.099747	0.001188
0.855	4.095434	0.000893
0.858	4.091197	0.000643
0.861	4.087038	0.000436
0.864	4.082956	0.000271
0.867	4.078954	0.000146
0.870	4.075034	0.000060
0.873	4.071200	0.000012
0.876	4.067461	0
0.879	4.063826	0
0.882	4.060276	0
0.885	4.056803	0
0.888	4.053401	0
0.891	4.050065	0
0.894	4.046792	0
0.897	4.043579	0
0.900	4.040423	0
0.903	4.037323	0
0.906	4.034276	0
0.909	4.031281	0
0.912	4.028335	0
0.915	4.025437	0
0.918	4.022585	0
0.921	4.019779	0
0.924	4.017016	0
0.927	4.014296	0
0.930	4.011617	0
0.933	4.008979	0
0.936	4.006379	0
0.939	4.003818	0
0.942	4.001294	0
0.945	3.998806	0
0.948	3.996353	0
0.951	3.993936	0
0.954	3.991551	0
0.957	3.989200	0
0.960	3.986881	0
0.963	3.984594	0
0.966	3.982337	0
0.969	3.980111	0
0.972	3.977914	0
0.975	3.975746	0
0.978	3.973606	0
0.981	3.971494	0
0.984	3.969409	0
0.987	3.967351	0
0.990	3.965319	0
0.993	3.963312	0
0.996	3.961331	0
0.999	3.959374	0
1.012	3.951166	0
1.030	3.940484	0
1.048	3.930521	0
1.066	3.921207	0
1.084	3.912482	0
1.102	3.904292	0
1.120	3.896591	0
1.138	3.889338	0
1.156	3.882495	0
1.174	3.876032	0
1.192	3.869918	0
1.210	3.864126	0
1.228	3.858635	0
1.246	3.853421	0
1.264	3.848467	0
1.282	3.843753	0
1.300	3.839264	0
1.318	3.834986	0
1.336	3.830904	0
1.354	3.827007	0
1.372	3.823283	0
1.390	3.819721	0
1.408	3.816312	0
1.426	3.813047	0
1.444	3.809918	0
1.462	3.806917	0
1.480	3.804037	0
1.498	3.801272	0
1.516	3.798614	0
1.534	3.796059	0
1.552	3.793601	0
1.570	3.791235	0
1.588	3.788957	0
1.606	3.786762	0
1.624	3.784646	0
1.642	3.782605	0
1.660	3.780635	0
1.678	3.778734	0
1.696	3.776898	0
1.714	3.775124	0
1.732	3.773409	0
1.750	3.771751	0
1.768	3.770146	0
1.786	3.768594	0
1.804	3.767091	0
1.822	3.765635	0
1.840	3.764224	0
1.858	3.762857	0
1.876	3.761532	0
1.894	3.760246	0
1.912	3.758999	0
1.930	3.757789	0
1.948	3.756614	0
1.966	3.755473	0
1.984	3.754364	0
2.002	3.753287	0
2.020	3.752240	0
2.038	3.751223	0
2.056	3.750233	0
2.074	3.749270	0
2.092	3.748333	0
2.110	3.747422	0
2.128	3.746534	0
2.146	3.745669	0
2.164	3.744828	0
2.182	3.744007	0
2.200	3.743208	0
2.218	3.742429	0
2.236	3.741669	0
2.254	3.740929	0
2.272	3.740206	0
2.290	3.739502	0
2.308	3.738814	0
2.326	3.738143	0
2.344	3.737488	0
2.362	3.736848	0
2.380	3.736224	0
2.398	3.735614	0
2.416	3.735018	0
2.434	3.734435	0
2.452	3.733866	0
2.470	3.733310	0
2.488	3.732766	0
