Material: main / Si / Karaman-220C
Optical constants. O. C. Karaman, G. N. Naidu, A. R. Bowman, E. N. Dayi, G. Tagliabue. Decoupling optical and thermal dynamics in dielectric metasurfaces for self-encoded photonic control. Laser Photonics Rev., e01014 (2025) (Numerical data kindly provided by Omer Can Karaman)
Comments: Amorphous silicon (a-Si), 220 Â°C. 100 nm film on fused silica substrate.
Conditions: {"temperature": 493, "film_thickness": "100e-9", "substrate": "SiO2"}
wavelength (um)	n	k
0.210	1.079148	2.946963
0.213	1.125818	3.000994
0.216	1.174360	3.054680
0.219	1.224834	3.107947
0.222	1.277300	3.160716
0.225	1.331814	3.212896
0.228	1.388429	3.264392
0.231	1.447198	3.315097
0.234	1.508165	3.364895
0.237	1.571374	3.413662
0.240	1.636857	3.461265
0.243	1.704641	3.507559
0.246	1.774745	3.552392
0.249	1.847176	3.595603
0.252	1.921927	3.637022
0.255	1.998982	3.676470
0.258	2.078305	3.713763
0.261	2.159846	3.748712
0.264	2.243536	3.781123
0.267	2.329285	3.810798
0.270	2.416986	3.837544
0.273	2.506505	3.861165
0.276	2.597690	3.881475
0.279	2.690362	3.898293
0.282	2.784322	3.911450
0.285	2.879349	3.920794
0.288	2.975199	3.926188
0.291	3.071610	3.927518
0.294	3.168303	3.924694
0.297	3.264987	3.917653
0.300	3.361356	3.906361
0.303	3.457102	3.890817
0.306	3.551910	3.871051
0.309	3.645470	3.847126
0.312	3.737478	3.819139
0.315	3.827640	3.787218
0.318	3.915678	3.751523
0.321	4.001332	3.712239
0.324	4.084366	3.669577
0.327	4.164569	3.623771
0.330	4.241757	3.575070
0.333	4.315778	3.523737
0.336	4.386506	3.470044
0.339	4.453848	3.414268
0.342	4.517740	3.356687
0.345	4.578148	3.297575
0.348	4.635063	3.237202
0.351	4.688501	3.175827
0.354	4.738503	3.113698
0.357	4.785127	3.051048
0.360	4.828451	2.988097
0.363	4.868567	2.925049
0.366	4.905581	2.862087
0.369	4.939605	2.799383
0.372	4.970763	2.737087
0.375	4.999181	2.675334
0.378	5.024990	2.614244
0.381	5.048323	2.553919
0.384	5.069312	2.494448
0.387	5.088089	2.435908
0.390	5.104783	2.378359
0.393	5.119521	2.321854
0.396	5.132425	2.266432
0.399	5.143614	2.212126
0.402	5.153202	2.158956
0.405	5.161295	2.106939
0.408	5.167999	2.056082
0.411	5.173411	2.006388
0.414	5.177623	1.957854
0.417	5.180724	1.910473
0.420	5.182795	1.864233
0.423	5.183913	1.819121
0.426	5.184151	1.775120
0.429	5.183576	1.732211
0.432	5.182251	1.690373
0.435	5.180236	1.649583
0.438	5.177584	1.609820
0.441	5.174345	1.571057
0.444	5.170569	1.533271
0.447	5.166298	1.496437
0.450	5.161573	1.460528
0.453	5.156431	1.425521
0.456	5.150907	1.391389
0.459	5.145032	1.358109
0.462	5.138838	1.325654
0.465	5.132350	1.294001
0.468	5.125595	1.263125
0.471	5.118596	1.233005
0.474	5.111373	1.203616
0.477	5.103947	1.174938
0.480	5.096336	1.146947
0.483	5.088557	1.119624
0.486	5.080625	1.092948
0.489	5.072555	1.066899
0.492	5.064359	1.041459
0.495	5.056049	1.016609
0.498	5.047638	0.992331
0.501	5.039134	0.968608
0.504	5.030547	0.945424
0.507	5.021886	0.922763
0.510	5.013159	0.900610
0.513	5.004373	0.878949
0.516	4.995533	0.857767
0.519	4.986648	0.837050
0.522	4.977722	0.816785
0.525	4.968761	0.796960
0.528	4.959769	0.777562
0.531	4.950751	0.758579
0.534	4.941710	0.740002
0.537	4.932651	0.721818
0.540	4.923576	0.704018
0.543	4.914490	0.686592
0.546	4.905395	0.669530
0.549	4.896293	0.652823
0.552	4.887187	0.636463
0.555	4.878081	0.620441
0.558	4.868974	0.604749
0.561	4.859870	0.589380
0.564	4.850771	0.574325
0.567	4.841678	0.559579
0.570	4.832592	0.545133
0.573	4.823517	0.530982
0.576	4.814452	0.517119
0.579	4.805399	0.503538
0.582	4.796360	0.490233
0.585	4.787334	0.477198
0.588	4.778326	0.464429
0.591	4.769334	0.451919
0.594	4.760360	0.439665
0.597	4.751406	0.427660
0.600	4.742471	0.415901
0.603	4.733558	0.404382
0.606	4.724667	0.393100
0.609	4.715798	0.382050
0.612	4.706954	0.371228
0.615	4.698134	0.360630
0.618	4.689340	0.350253
0.621	4.680573	0.340092
0.624	4.671833	0.330145
0.627	4.663121	0.320407
0.630	4.654438	0.310875
0.633	4.645785	0.301546
0.636	4.637163	0.292417
0.639	4.628572	0.283484
0.642	4.620015	0.274745
0.645	4.611490	0.266196
0.648	4.603000	0.257835
0.651	4.594544	0.249659
0.654	4.586124	0.241665
0.657	4.577741	0.233850
0.660	4.569395	0.226212
0.663	4.561088	0.218747
0.666	4.552819	0.211455
0.669	4.544591	0.204331
0.672	4.536403	0.197374
0.675	4.528257	0.190581
0.678	4.520153	0.183950
0.681	4.512092	0.177477
0.684	4.504076	0.171162
0.687	4.496103	0.165002
0.690	4.488177	0.158994
0.693	4.480297	0.153136
0.696	4.472464	0.147426
0.699	4.464679	0.141861
0.702	4.456943	0.136440
0.705	4.449255	0.131161
0.708	4.441618	0.126021
0.711	4.434032	0.121018
0.714	4.426498	0.116150
0.717	4.419016	0.111415
0.720	4.411587	0.106810
0.723	4.404212	0.102335
0.726	4.396891	0.097986
0.729	4.389625	0.093762
0.732	4.382415	0.089661
0.735	4.375260	0.085681
0.738	4.368164	0.081819
0.741	4.361124	0.078074
0.744	4.354142	0.074444
0.747	4.347219	0.070927
0.750	4.340355	0.067521
0.753	4.333551	0.064224
0.756	4.326807	0.061034
0.759	4.320124	0.057949
0.762	4.313501	0.054967
0.765	4.306941	0.052087
0.768	4.300442	0.049307
0.771	4.294005	0.046624
0.774	4.287632	0.044037
0.777	4.281322	0.041544
0.780	4.275074	0.039144
0.783	4.268891	0.036834
0.786	4.262773	0.034613
0.789	4.256718	0.032479
0.792	4.250728	0.030429
0.795	4.244803	0.028464
0.798	4.238944	0.026580
0.801	4.233150	0.024776
0.804	4.227421	0.023051
0.807	4.221758	0.021402
0.810	4.216162	0.019828
0.813	4.210631	0.018328
0.816	4.205167	0.016899
0.819	4.199769	0.015541
0.822	4.194438	0.014251
0.825	4.189173	0.013028
0.828	4.183976	0.011870
0.831	4.178844	0.010776
0.834	4.173781	0.009745
0.837	4.168784	0.008775
0.840	4.163854	0.007863
0.843	4.158991	0.007010
0.846	4.154196	0.006214
0.849	4.149468	0.005472
0.852	4.144808	0.004784
0.855	4.140214	0.004148
0.858	4.135689	0.003563
0.861	4.131231	0.003028
0.864	4.126842	0.002541
0.867	4.122520	0.002101
0.870	4.118267	0.001706
0.873	4.114081	0.001356
0.876	4.109966	0.001049
0.879	4.105919	0.000784
0.882	4.101943	0.000559
0.885	4.098038	0.000374
0.888	4.094205	0.000228
0.891	4.090445	0.000118
0.894	4.086761	0.000045
0.897	4.083157	0.000007
0.900	4.079644	0
0.903	4.076225	0
0.906	4.072882	0
0.909	4.069610	0
0.912	4.066401	0
0.915	4.063254	0
0.918	4.060164	0
0.921	4.057130	0
0.924	4.054149	0
0.927	4.051218	0
0.930	4.048337	0
0.933	4.045502	0
0.936	4.042713	0
0.939	4.039969	0
0.942	4.037267	0
0.945	4.034607	0
0.948	4.031988	0
0.951	4.029408	0
0.954	4.026865	0
0.957	4.024361	0
0.960	4.021893	0
0.963	4.019459	0
0.966	4.017061	0
0.969	4.014696	0
0.972	4.012363	0
0.975	4.010064	0
0.978	4.007795	0
0.981	4.005557	0
0.984	4.003349	0
0.987	4.001170	0
0.990	3.999020	0
0.993	3.996898	0
0.996	3.994803	0
0.999	3.992735	0
1.012	3.984073	0
1.030	3.972821	0
1.048	3.962347	0
1.066	3.952571	0
1.084	3.943426	0
1.102	3.934852	0
1.120	3.926798	0
1.138	3.919220	0
1.156	3.912078	0
1.174	3.905336	0
1.192	3.898963	0
1.210	3.892931	0
1.228	3.887215	0
1.246	3.881790	0
1.264	3.876638	0
1.282	3.871738	0
1.300	3.867075	0
1.318	3.862631	0
1.336	3.858394	0
1.354	3.854349	0
1.372	3.850485	0
1.390	3.846791	0
1.408	3.843256	0
1.426	3.839872	0
1.444	3.836629	0
1.462	3.833520	0
1.480	3.830537	0
1.498	3.827672	0
1.516	3.824921	0
1.534	3.822276	0
1.552	3.819732	0
1.570	3.817283	0
1.588	3.814926	0
1.606	3.812655	0
1.624	3.810467	0
1.642	3.808356	0
1.660	3.806319	0
1.678	3.804354	0
1.696	3.802456	0
1.714	3.800622	0
1.732	3.798849	0
1.750	3.797136	0
1.768	3.795478	0
1.786	3.793874	0
1.804	3.792321	0
1.822	3.790817	0
1.840	3.789360	0
1.858	3.787948	0
1.876	3.786580	0
1.894	3.785252	0
1.912	3.783964	0
1.930	3.782715	0
1.948	3.781502	0
1.966	3.780324	0
1.984	3.779180	0
2.002	3.778068	0
2.020	3.776988	0
2.038	3.775937	0
2.056	3.774916	0
2.074	3.773922	0
2.092	3.772955	0
2.110	3.772015	0
2.128	3.771099	0
2.146	3.770207	0
2.164	3.769339	0
2.182	3.768492	0
2.200	3.767668	0
2.218	3.766864	0
2.236	3.766081	0
2.254	3.765317	0
2.272	3.764572	0
2.290	3.763845	0
2.308	3.763136	0
2.326	3.762444	0
2.344	3.761769	0
2.362	3.761109	0
2.380	3.760465	0
2.398	3.759836	0
2.416	3.759222	0
2.434	3.758621	0
2.452	3.758034	0
2.470	3.757461	0
2.488	3.756900	0
