Material: main / Si / Karaman-20C
Optical constants. O. C. Karaman, G. N. Naidu, A. R. Bowman, E. N. Dayi, G. Tagliabue. Decoupling optical and thermal dynamics in dielectric metasurfaces for self-encoded photonic control. Laser Photonics Rev., e01014 (2025) (Numerical data kindly provided by Omer Can Karaman)
Comments: Amorphous silicon (a-Si), 20 Â°C. 100 nm film on fused silica substrate.
Conditions: {"temperature": 293, "film_thickness": "100e-9", "substrate": "SiO2"}
wavelength (um)	n	k
0.210	1.082399	2.951524
0.213	1.129450	3.006009
0.216	1.178414	3.060167
0.219	1.229356	3.113925
0.222	1.282336	3.167200
0.225	1.337417	3.219902
0.228	1.394657	3.271932
0.231	1.454111	3.323181
0.234	1.515831	3.373530
0.237	1.579861	3.422853
0.240	1.646242	3.471009
0.243	1.715005	3.517850
0.246	1.786172	3.563218
0.249	1.859755	3.606945
0.252	1.935752	3.648851
0.255	2.014148	3.688751
0.258	2.094912	3.726451
0.261	2.177994	3.761749
0.264	2.263328	3.794441
0.267	2.350823	3.824318
0.270	2.440367	3.851171
0.273	2.531826	3.874794
0.276	2.625040	3.894984
0.279	2.719825	3.911548
0.282	2.815971	3.924304
0.285	2.913245	3.933085
0.288	3.011391	3.937745
0.291	3.110130	3.938157
0.294	3.209167	3.934224
0.297	3.308188	3.925875
0.300	3.406870	3.913074
0.303	3.504880	3.895816
0.306	3.601885	3.874135
0.309	3.697551	3.848097
0.312	3.791551	3.817808
0.315	3.883572	3.783407
0.318	3.973316	3.745066
0.321	4.060508	3.702988
0.324	4.144895	3.657401
0.327	4.226255	3.608558
0.330	4.304396	3.556731
0.333	4.379158	3.502203
0.336	4.450413	3.445269
0.339	4.518068	3.386227
0.342	4.582062	3.325377
0.345	4.642365	3.263012
0.348	4.698974	3.199420
0.351	4.751917	3.134878
0.354	4.801243	3.069647
0.357	4.847024	3.003974
0.360	4.889350	2.938091
0.363	4.928326	2.872209
0.366	4.964070	2.806520
0.369	4.996708	2.741199
0.372	5.026378	2.676402
0.375	5.053217	2.612266
0.378	5.077369	2.548910
0.381	5.098979	2.486438
0.384	5.118187	2.424937
0.387	5.135138	2.364480
0.390	5.149968	2.305128
0.393	5.162812	2.246928
0.396	5.173800	2.189918
0.399	5.183058	2.134123
0.402	5.190703	2.079562
0.405	5.196851	2.026247
0.408	5.201608	1.974180
0.411	5.205077	1.923360
0.414	5.207353	1.873779
0.417	5.208527	1.825427
0.420	5.208683	1.778288
0.423	5.207901	1.732345
0.426	5.206254	1.687576
0.429	5.203810	1.643960
0.432	5.200634	1.601471
0.435	5.196786	1.560085
0.438	5.192320	1.519776
0.441	5.187287	1.480515
0.444	5.181736	1.442277
0.447	5.175709	1.405033
0.450	5.169248	1.368756
0.453	5.162389	1.333418
0.456	5.155167	1.298993
0.459	5.147614	1.265454
0.462	5.139758	1.232774
0.465	5.131628	1.200928
0.468	5.123248	1.169890
0.471	5.114640	1.139636
0.474	5.105826	1.110142
0.477	5.096826	1.081385
0.480	5.087656	1.053343
0.483	5.078334	1.025993
0.486	5.068874	0.999315
0.489	5.059291	0.973288
0.492	5.049596	0.947893
0.495	5.039803	0.923110
0.498	5.029920	0.898923
0.501	5.019959	0.875312
0.504	5.009929	0.852261
0.507	4.999837	0.829755
0.510	4.989691	0.807777
0.513	4.979500	0.786312
0.516	4.969268	0.765345
0.519	4.959002	0.744864
0.522	4.948709	0.724855
0.525	4.938392	0.705305
0.528	4.928056	0.686202
0.531	4.917706	0.667534
0.534	4.907346	0.649289
0.537	4.896980	0.631457
0.540	4.886611	0.614028
0.543	4.876242	0.596992
0.546	4.865877	0.580338
0.549	4.855518	0.564059
0.552	4.845168	0.548144
0.555	4.834829	0.532586
0.558	4.824503	0.517376
0.561	4.814194	0.502506
0.564	4.803902	0.487969
0.567	4.793631	0.473758
0.570	4.783380	0.459865
0.573	4.773154	0.446285
0.576	4.762952	0.433009
0.579	4.752777	0.420033
0.582	4.742631	0.407350
0.585	4.732514	0.394954
0.588	4.722429	0.382839
0.591	4.712376	0.371001
0.594	4.702358	0.359433
0.597	4.692374	0.348131
0.600	4.682428	0.337090
0.603	4.672519	0.326305
0.606	4.662650	0.315771
0.609	4.652820	0.305484
0.612	4.643033	0.295440
0.615	4.633287	0.285633
0.618	4.623587	0.276061
0.621	4.613931	0.266718
0.624	4.604321	0.257601
0.627	4.594758	0.248707
0.630	4.585244	0.240030
0.633	4.575779	0.231569
0.636	4.566364	0.223318
0.639	4.557002	0.215275
0.642	4.547691	0.207435
0.645	4.538435	0.199796
0.648	4.529233	0.192355
0.651	4.520086	0.185107
0.654	4.510997	0.178050
0.657	4.501965	0.171180
0.660	4.492991	0.164495
0.663	4.484077	0.157991
0.666	4.475224	0.151665
0.669	4.466432	0.145515
0.672	4.457702	0.139537
0.675	4.449035	0.133728
0.678	4.440432	0.128085
0.681	4.431894	0.122606
0.684	4.423422	0.117287
0.687	4.415016	0.112127
0.690	4.406678	0.107122
0.693	4.398407	0.102269
0.696	4.390205	0.097565
0.699	4.382073	0.093009
0.702	4.374011	0.088597
0.705	4.366020	0.084327
0.708	4.358100	0.080196
0.711	4.350253	0.076201
0.714	4.342479	0.072340
0.717	4.334777	0.068610
0.720	4.327150	0.065010
0.723	4.319597	0.061536
0.726	4.312119	0.058185
0.729	4.304717	0.054956
0.732	4.297390	0.051846
0.735	4.290139	0.048853
0.738	4.282966	0.045973
0.741	4.275869	0.043206
0.744	4.268850	0.040548
0.747	4.261909	0.037997
0.750	4.255046	0.035551
0.753	4.248261	0.033207
0.756	4.241555	0.030964
0.759	4.234928	0.028819
0.762	4.228380	0.026770
0.765	4.221911	0.024815
0.768	4.215522	0.022951
0.771	4.209213	0.021177
0.774	4.202983	0.019490
0.777	4.196834	0.017889
0.780	4.190764	0.016370
0.783	4.184774	0.014933
0.786	4.178865	0.013575
0.789	4.173036	0.012294
0.792	4.167288	0.011089
0.795	4.161620	0.009957
0.798	4.156032	0.008896
0.801	4.150525	0.007905
0.804	4.145098	0.006982
0.807	4.139751	0.006124
0.810	4.134486	0.005331
0.813	4.129301	0.004600
0.816	4.124197	0.003930
0.819	4.119174	0.003319
0.822	4.114232	0.002765
0.825	4.109371	0.002267
0.828	4.104591	0.001822
0.831	4.099894	0.001430
0.834	4.095278	0.001089
0.837	4.090745	0.000798
0.840	4.086296	0.000554
0.843	4.081932	0.000356
0.846	4.077653	0.000204
0.849	4.073462	0.000094
0.852	4.069363	0.000027
0.855	4.065362	0.000001
0.858	4.061476	0
0.861	4.057689	0
0.864	4.053988	0
0.867	4.050365	0
0.870	4.046816	0
0.873	4.043336	0
0.876	4.039923	0
0.879	4.036573	0
0.882	4.033284	0
0.885	4.030053	0
0.888	4.026877	0
0.891	4.023757	0
0.894	4.020688	0
0.897	4.017670	0
0.900	4.014700	0
0.903	4.011779	0
0.906	4.008904	0
0.909	4.006073	0
0.912	4.003287	0
0.915	4.000543	0
0.918	3.997840	0
0.921	3.995178	0
0.924	3.992554	0
0.927	3.989969	0
0.930	3.987422	0
0.933	3.984911	0
0.936	3.982435	0
0.939	3.979995	0
0.942	3.977588	0
0.945	3.975215	0
0.948	3.972874	0
0.951	3.970565	0
0.954	3.968287	0
0.957	3.966039	0
0.960	3.963821	0
0.963	3.961633	0
0.966	3.959473	0
0.969	3.957341	0
0.972	3.955236	0
0.975	3.953159	0
0.978	3.951107	0
0.981	3.949082	0
0.984	3.947082	0
0.987	3.945106	0
0.990	3.943156	0
0.993	3.941229	0
0.996	3.939325	0
0.999	3.937445	0
1.012	3.929553	0
1.030	3.919269	0
1.048	3.909666	0
1.066	3.900678	0
1.084	3.892250	0
1.102	3.884333	0
1.120	3.876882	0
1.138	3.869860	0
1.156	3.863232	0
1.174	3.856967	0
1.192	3.851038	0
1.210	3.845419	0
1.228	3.840089	0
1.246	3.835027	0
1.264	3.830214	0
1.282	3.825634	0
1.300	3.821271	0
1.318	3.817111	0
1.336	3.813142	0
1.354	3.809351	0
1.372	3.805727	0
1.390	3.802261	0
1.408	3.798943	0
1.426	3.795764	0
1.444	3.792717	0
1.462	3.789794	0
1.480	3.786988	0
1.498	3.784294	0
1.516	3.781704	0
1.534	3.779214	0
1.552	3.776818	0
1.570	3.774512	0
1.588	3.772291	0
1.606	3.770150	0
1.624	3.768087	0
1.642	3.766096	0
1.660	3.764175	0
1.678	3.762321	0
1.696	3.760529	0
1.714	3.758798	0
1.732	3.757125	0
1.750	3.755507	0
1.768	3.753941	0
1.786	3.752425	0
1.804	3.750958	0
1.822	3.749537	0
1.840	3.748160	0
1.858	3.746825	0
1.876	3.745532	0
1.894	3.744276	0
1.912	3.743058	0
1.930	3.741877	0
1.948	3.740729	0
1.966	3.739615	0
1.984	3.738532	0
2.002	3.737480	0
2.020	3.736458	0
2.038	3.735463	0
2.056	3.734496	0
2.074	3.733556	0
2.092	3.732641	0
2.110	3.731750	0
2.128	3.730882	0
2.146	3.730038	0
2.164	3.729215	0
2.182	3.728414	0
2.200	3.727633	0
2.218	3.726871	0
2.236	3.726129	0
2.254	3.725405	0
2.272	3.724699	0
2.290	3.724010	0
2.308	3.723338	0
2.326	3.722682	0
2.344	3.722042	0
2.362	3.721417	0
2.380	3.720806	0
2.398	3.720210	0
2.416	3.719627	0
2.434	3.719058	0
2.452	3.718502	0
2.470	3.717958	0
2.488	3.717426	0
