Material: main / Si / Karaman-70C
Optical constants. O. C. Karaman, G. N. Naidu, A. R. Bowman, E. N. Dayi, G. Tagliabue. Decoupling optical and thermal dynamics in dielectric metasurfaces for self-encoded photonic control. Laser Photonics Rev., e01014 (2025) (Numerical data kindly provided by Omer Can Karaman)
Comments: Amorphous silicon (a-Si), 70 Â°C. 100 nm film on fused silica substrate.
Conditions: {"temperature": 343, "film_thickness": "100e-9", "substrate": "SiO2"}
wavelength (um)	n	k
0.210	1.083091	2.951447
0.213	1.130151	3.005851
0.216	1.179122	3.059921
0.219	1.230067	3.113584
0.222	1.283046	3.166758
0.225	1.338119	3.219351
0.228	1.395346	3.271265
0.231	1.454780	3.322391
0.234	1.516471	3.372610
0.237	1.580464	3.421794
0.240	1.646797	3.469805
0.243	1.715500	3.516493
0.246	1.786595	3.561702
0.249	1.860092	3.605263
0.252	1.935987	3.646999
0.255	2.014264	3.686725
0.258	2.094891	3.724246
0.261	2.177817	3.759365
0.264	2.262973	3.791877
0.267	2.350268	3.821575
0.270	2.439590	3.848254
0.273	2.530802	3.871708
0.276	2.623745	3.891739
0.279	2.718234	3.908155
0.282	2.814059	3.920778
0.285	2.910988	3.929444
0.288	3.008766	3.934009
0.291	3.107115	3.934350
0.294	3.205741	3.930374
0.297	3.304334	3.922012
0.300	3.402573	3.909230
0.303	3.500129	3.892026
0.306	3.596671	3.870436
0.309	3.691870	3.844529
0.312	3.785403	3.814409
0.315	3.876961	3.780217
0.318	3.966251	3.742123
0.321	4.053000	3.700331
0.324	4.136962	3.655067
0.327	4.217918	3.606583
0.330	4.295678	3.555146
0.333	4.370086	3.501038
0.336	4.441017	3.444551
0.339	4.508379	3.385979
0.342	4.572114	3.325617
0.345	4.632191	3.263757
0.348	4.688611	3.200682
0.351	4.741398	3.136665
0.354	4.790604	3.071965
0.357	4.836298	3.006825
0.360	4.878571	2.941474
0.363	4.917524	2.876120
0.366	4.953276	2.810954
0.369	4.985952	2.746147
0.372	5.015685	2.681854
0.375	5.042613	2.618211
0.378	5.066877	2.555336
0.381	5.088619	2.493331
0.384	5.107981	2.432283
0.387	5.125102	2.372264
0.390	5.140118	2.313334
0.393	5.153163	2.255541
0.396	5.164366	2.198921
0.399	5.173849	2.143501
0.402	5.181730	2.089300
0.405	5.188122	2.036329
0.408	5.193131	1.984592
0.411	5.196860	1.934086
0.414	5.199401	1.884806
0.417	5.200845	1.836741
0.420	5.201276	1.789875
0.423	5.200772	1.744191
0.426	5.199406	1.699670
0.429	5.197246	1.656288
0.432	5.194355	1.614023
0.435	5.190794	1.572850
0.438	5.186617	1.532741
0.441	5.181874	1.493672
0.444	5.176612	1.455614
0.447	5.170876	1.418541
0.450	5.164704	1.382426
0.453	5.158135	1.347241
0.456	5.151203	1.312961
0.459	5.143939	1.279557
0.462	5.136372	1.247005
0.465	5.128530	1.215278
0.468	5.120437	1.184353
0.471	5.112116	1.154204
0.474	5.103589	1.124808
0.477	5.094872	1.096142
0.480	5.085987	1.068184
0.483	5.076948	1.040912
0.486	5.067770	1.014305
0.489	5.058466	0.988344
0.492	5.049052	0.963008
0.495	5.039536	0.938278
0.498	5.029931	0.914138
0.501	5.020246	0.890569
0.504	5.010489	0.867554
0.507	5.000671	0.845078
0.510	4.990798	0.823125
0.513	4.980876	0.801679
0.516	4.970914	0.780728
0.519	4.960916	0.760256
0.522	4.950888	0.740250
0.525	4.940835	0.720699
0.528	4.930763	0.701590
0.531	4.920674	0.682910
0.534	4.910574	0.664650
0.537	4.900466	0.646797
0.540	4.890353	0.629342
0.543	4.880239	0.612275
0.546	4.870126	0.595586
0.549	4.860018	0.579267
0.552	4.849916	0.563307
0.555	4.839824	0.547700
0.558	4.829743	0.532436
0.561	4.819675	0.517508
0.564	4.809624	0.502908
0.567	4.799590	0.488630
0.570	4.789575	0.474666
0.573	4.779581	0.461009
0.576	4.769609	0.447654
0.579	4.759663	0.434593
0.582	4.749741	0.421821
0.585	4.739847	0.409333
0.588	4.729981	0.397122
0.591	4.720145	0.385183
0.594	4.710340	0.373511
0.597	4.700567	0.362101
0.600	4.690828	0.350948
0.603	4.681123	0.340047
0.606	4.671454	0.329394
0.609	4.661823	0.318984
0.612	4.652230	0.308813
0.615	4.642675	0.298877
0.618	4.633162	0.289171
0.621	4.623690	0.279693
0.624	4.614260	0.270436
0.627	4.604873	0.261400
0.630	4.595531	0.252578
0.633	4.586236	0.243968
0.636	4.576986	0.235566
0.639	4.567784	0.227369
0.642	4.558631	0.219374
0.645	4.549527	0.211576
0.648	4.540474	0.203974
0.651	4.531473	0.196563
0.654	4.522523	0.189340
0.657	4.513628	0.182303
0.660	4.504786	0.175449
0.663	4.496000	0.168773
0.666	4.487271	0.162274
0.669	4.478598	0.155949
0.672	4.469983	0.149795
0.675	4.461427	0.143808
0.678	4.452931	0.137986
0.681	4.444495	0.132327
0.684	4.436121	0.126828
0.687	4.427808	0.121485
0.690	4.419559	0.116296
0.693	4.411373	0.111259
0.696	4.403251	0.106372
0.699	4.395195	0.101630
0.702	4.387205	0.097033
0.705	4.379281	0.092576
0.708	4.371424	0.088259
0.711	4.363635	0.084078
0.714	4.355915	0.080030
0.717	4.348263	0.076114
0.720	4.340682	0.072327
0.723	4.333170	0.068667
0.726	4.325730	0.065130
0.729	4.318360	0.061716
0.732	4.311063	0.058421
0.735	4.303837	0.055243
0.738	4.296685	0.052180
0.741	4.289605	0.049230
0.744	4.282599	0.046389
0.747	4.275667	0.043657
0.750	4.268808	0.041031
0.753	4.262025	0.038508
0.756	4.255316	0.036087
0.759	4.248682	0.033765
0.762	4.242125	0.031540
0.765	4.235642	0.029411
0.768	4.229235	0.027374
0.771	4.222905	0.025428
0.774	4.216650	0.023571
0.777	4.210472	0.021801
0.780	4.204370	0.020115
0.783	4.198346	0.018513
0.786	4.192398	0.016991
0.789	4.186526	0.015548
0.792	4.180732	0.014183
0.795	4.175015	0.012892
0.798	4.169375	0.011675
0.801	4.163812	0.010529
0.804	4.158326	0.009453
0.807	4.152917	0.008445
0.810	4.147586	0.007503
0.813	4.142332	0.006625
0.816	4.137155	0.005810
0.819	4.132055	0.005056
0.822	4.127033	0.004361
0.825	4.122089	0.003724
0.828	4.117222	0.003144
0.831	4.112433	0.002617
0.834	4.107722	0.002144
0.837	4.103089	0.001722
0.840	4.098535	0.001350
0.843	4.094059	0.001026
0.846	4.089663	0.000750
0.849	4.085347	0.000519
0.852	4.081113	0.000332
0.855	4.076961	0.000188
0.858	4.072894	0.000086
0.861	4.068914	0.000024
0.864	4.065030	0
0.867	4.061256	0
0.870	4.057577	0
0.873	4.053979	0
0.876	4.050457	0
0.879	4.047005	0
0.882	4.043620	0
0.885	4.040298	0
0.888	4.037038	0
0.891	4.033835	0
0.894	4.030689	0
0.897	4.027596	0
0.900	4.024556	0
0.903	4.021566	0
0.906	4.018625	0
0.909	4.015730	0
0.912	4.012882	0
0.915	4.010079	0
0.918	4.007318	0
0.921	4.004600	0
0.924	4.001923	0
0.927	3.999286	0
0.930	3.996687	0
0.933	3.994127	0
0.936	3.991603	0
0.939	3.989116	0
0.942	3.986664	0
0.945	3.984246	0
0.948	3.981862	0
0.951	3.979510	0
0.954	3.977191	0
0.957	3.974904	0
0.960	3.972646	0
0.963	3.970420	0
0.966	3.968222	0
0.969	3.966054	0
0.972	3.963913	0
0.975	3.961801	0
0.978	3.959715	0
0.981	3.957656	0
0.984	3.955623	0
0.987	3.953616	0
0.990	3.951633	0
0.993	3.949676	0
0.996	3.947742	0
0.999	3.945832	0
1.012	3.937818	0
1.030	3.927381	0
1.048	3.917639	0
1.066	3.908525	0
1.084	3.899983	0
1.102	3.891961	0
1.120	3.884415	0
1.138	3.877304	0
1.156	3.870594	0
1.174	3.864253	0
1.192	3.858253	0
1.210	3.852569	0
1.228	3.847177	0
1.246	3.842057	0
1.264	3.837191	0
1.282	3.832560	0
1.300	3.828149	0
1.318	3.823944	0
1.336	3.819932	0
1.354	3.816101	0
1.372	3.812439	0
1.390	3.808937	0
1.408	3.805584	0
1.426	3.802373	0
1.444	3.799294	0
1.462	3.796342	0
1.480	3.793508	0
1.498	3.790787	0
1.516	3.788172	0
1.534	3.785657	0
1.552	3.783238	0
1.570	3.780909	0
1.588	3.778666	0
1.606	3.776505	0
1.624	3.774422	0
1.642	3.772412	0
1.660	3.770473	0
1.678	3.768601	0
1.696	3.766793	0
1.714	3.765045	0
1.732	3.763356	0
1.750	3.761723	0
1.768	3.760143	0
1.786	3.758614	0
1.804	3.757133	0
1.822	3.755699	0
1.840	3.754309	0
1.858	3.752962	0
1.876	3.751657	0
1.894	3.750390	0
1.912	3.749161	0
1.930	3.747968	0
1.948	3.746811	0
1.966	3.745686	0
1.984	3.744594	0
2.002	3.743533	0
2.020	3.742501	0
2.038	3.741498	0
2.056	3.740522	0
2.074	3.739573	0
2.092	3.738650	0
2.110	3.737751	0
2.128	3.736876	0
2.146	3.736024	0
2.164	3.735195	0
2.182	3.734386	0
2.200	3.733598	0
2.218	3.732830	0
2.236	3.732081	0
2.254	3.731351	0
2.272	3.730639	0
2.290	3.729944	0
2.308	3.729267	0
2.326	3.728605	0
2.344	3.727959	0
2.362	3.727329	0
2.380	3.726713	0
2.398	3.726111	0
2.416	3.725523	0
2.434	3.724949	0
2.452	3.724388	0
2.470	3.723840	0
2.488	3.723303	0
