Material: main / Si / Karaman-170C
Optical constants. O. C. Karaman, G. N. Naidu, A. R. Bowman, E. N. Dayi, G. Tagliabue. Decoupling optical and thermal dynamics in dielectric metasurfaces for self-encoded photonic control. Laser Photonics Rev., e01014 (2025) (Numerical data kindly provided by Omer Can Karaman)
Comments: Amorphous silicon (a-Si), 170 Â°C. 100 nm film on fused silica substrate.
Conditions: {"temperature": 443, "film_thickness": "100e-9", "substrate": "SiO2"}
wavelength (um)	n	k
0.210	1.079419	2.954370
0.213	1.126366	3.008801
0.216	1.175218	3.062897
0.219	1.226036	3.116582
0.222	1.278883	3.169775
0.225	1.333817	3.222384
0.228	1.390896	3.274312
0.231	1.450172	3.325447
0.234	1.511695	3.375674
0.237	1.575508	3.424862
0.240	1.641648	3.472875
0.243	1.710145	3.519565
0.246	1.781017	3.564774
0.249	1.854274	3.608335
0.252	1.929911	3.650072
0.255	2.007910	3.689801
0.258	2.088237	3.727330
0.261	2.170841	3.762463
0.264	2.255651	3.794997
0.267	2.342574	3.824729
0.270	2.431499	3.851455
0.273	2.522287	3.874974
0.276	2.614780	3.895091
0.279	2.708792	3.911617
0.282	2.804115	3.924377
0.285	2.900517	3.933213
0.288	2.997746	3.937985
0.291	3.095525	3.938573
0.294	3.193565	3.934887
0.297	3.291559	3.926863
0.300	3.389190	3.914470
0.303	3.486135	3.897709
0.306	3.582066	3.876616
0.309	3.676662	3.851261
0.312	3.769606	3.821752
0.315	3.860594	3.788226
0.318	3.949339	3.750854
0.321	4.035575	3.709836
0.324	4.119062	3.665398
0.327	4.199584	3.617784
0.330	4.276957	3.567261
0.333	4.351029	3.514104
0.336	4.421678	3.458600
0.339	4.488815	3.401038
0.342	4.552383	3.341708
0.345	4.612352	3.280895
0.348	4.668723	3.218876
0.351	4.721522	3.155920
0.354	4.770796	3.092281
0.357	4.816616	3.028197
0.360	4.859068	2.963891
0.363	4.898253	2.899569
0.366	4.934287	2.835417
0.369	4.967290	2.771605
0.372	4.997395	2.708285
0.375	5.024735	2.645589
0.378	5.049450	2.583634
0.381	5.071677	2.522521
0.384	5.091554	2.462337
0.387	5.109220	2.403152
0.390	5.124807	2.345025
0.393	5.138446	2.288006
0.396	5.150263	2.232129
0.399	5.160378	2.177422
0.402	5.168910	2.123904
0.405	5.175966	2.071587
0.408	5.181652	2.020474
0.411	5.186068	1.970566
0.414	5.189307	1.921855
0.417	5.191457	1.874332
0.420	5.192600	1.827983
0.423	5.192814	1.782791
0.426	5.192171	1.738737
0.429	5.190739	1.695799
0.432	5.188580	1.653954
0.435	5.185752	1.613178
0.438	5.182310	1.573446
0.441	5.178304	1.534732
0.444	5.173780	1.497010
0.447	5.168782	1.460252
0.450	5.163349	1.424433
0.453	5.157519	1.389526
0.456	5.151325	1.355505
0.459	5.144799	1.322343
0.462	5.137969	1.290015
0.465	5.130863	1.258497
0.468	5.123504	1.227763
0.471	5.115916	1.197789
0.474	5.108119	1.168553
0.477	5.100133	1.140032
0.480	5.091975	1.112203
0.483	5.083661	1.085045
0.486	5.075207	1.058539
0.489	5.066625	1.032662
0.492	5.057929	1.007398
0.495	5.049129	0.982726
0.498	5.040237	0.958629
0.501	5.031263	0.935090
0.504	5.022215	0.912091
0.507	5.013101	0.889618
0.510	5.003929	0.867655
0.513	4.994706	0.846186
0.516	4.985438	0.825198
0.519	4.976132	0.804677
0.522	4.966792	0.784609
0.525	4.957422	0.764984
0.528	4.948029	0.745787
0.531	4.938616	0.727008
0.534	4.929186	0.708635
0.537	4.919744	0.690659
0.540	4.910293	0.673068
0.543	4.900835	0.655852
0.546	4.891373	0.639003
0.549	4.881910	0.622511
0.552	4.872449	0.606368
0.555	4.862991	0.590565
0.558	4.853538	0.575094
0.561	4.844093	0.559948
0.564	4.834657	0.545119
0.567	4.825233	0.530600
0.570	4.815820	0.516384
0.573	4.806421	0.502465
0.576	4.797038	0.488837
0.579	4.787672	0.475493
0.582	4.778323	0.462427
0.585	4.768994	0.449634
0.588	4.759686	0.437109
0.591	4.750398	0.424847
0.594	4.741133	0.412841
0.597	4.731892	0.401088
0.600	4.722676	0.389583
0.603	4.713485	0.378321
0.606	4.704321	0.367298
0.609	4.695184	0.356510
0.612	4.686076	0.345952
0.615	4.676998	0.335622
0.618	4.667950	0.325513
0.621	4.658933	0.315624
0.624	4.649948	0.305951
0.627	4.640997	0.296489
0.630	4.632080	0.287236
0.633	4.623197	0.278188
0.636	4.614350	0.269342
0.639	4.605540	0.260695
0.642	4.596768	0.252243
0.645	4.588034	0.243984
0.648	4.579340	0.235915
0.651	4.570685	0.228032
0.654	4.562072	0.220334
0.657	4.553501	0.212816
0.660	4.544972	0.205477
0.663	4.536488	0.198314
0.666	4.528048	0.191323
0.669	4.519653	0.184503
0.672	4.511304	0.177851
0.675	4.503004	0.171365
0.678	4.494750	0.165041
0.681	4.486546	0.158878
0.684	4.478391	0.152872
0.687	4.470287	0.147023
0.690	4.462234	0.141326
0.693	4.454233	0.135780
0.696	4.446286	0.130383
0.699	4.438391	0.125132
0.702	4.430552	0.120024
0.705	4.422767	0.115059
0.708	4.415039	0.110233
0.711	4.407367	0.105544
0.714	4.399753	0.100990
0.717	4.392196	0.096568
0.720	4.384699	0.092277
0.723	4.377261	0.088115
0.726	4.369883	0.084079
0.729	4.362566	0.080167
0.732	4.355310	0.076377
0.735	4.348116	0.072707
0.738	4.340985	0.069154
0.741	4.333917	0.065718
0.744	4.326912	0.062395
0.747	4.319972	0.059183
0.750	4.313096	0.056081
0.753	4.306285	0.053087
0.756	4.299541	0.050198
0.759	4.292861	0.047413
0.762	4.286249	0.044729
0.765	4.279703	0.042145
0.768	4.273225	0.039659
0.771	4.266814	0.037268
0.774	4.260471	0.034971
0.777	4.254196	0.032766
0.780	4.247990	0.030651
0.783	4.241853	0.028624
0.786	4.235785	0.026683
0.789	4.229785	0.024827
0.792	4.223855	0.023053
0.795	4.217996	0.021361
0.798	4.212206	0.019747
0.801	4.206486	0.018210
0.804	4.200836	0.016749
0.807	4.195257	0.015362
0.810	4.189748	0.014047
0.813	4.184310	0.012802
0.816	4.178943	0.011626
0.819	4.173646	0.010516
0.822	4.168420	0.009473
0.825	4.163265	0.008493
0.828	4.158182	0.007575
0.831	4.153169	0.006718
0.834	4.148228	0.005920
0.837	4.143357	0.005180
0.840	4.138559	0.004496
0.843	4.133832	0.003866
0.846	4.129177	0.003289
0.849	4.124593	0.002764
0.852	4.120081	0.002290
0.855	4.115642	0.001864
0.858	4.111275	0.001486
0.861	4.106981	0.001153
0.864	4.102761	0.000866
0.867	4.098615	0.000622
0.870	4.094543	0.000420
0.873	4.090548	0.000259
0.876	4.086630	0.000138
0.879	4.082792	0.000056
0.882	4.079037	0.000010
0.885	4.075377	0
0.888	4.071817	0
0.891	4.068341	0
0.894	4.064938	0
0.897	4.061604	0
0.900	4.058335	0
0.903	4.055128	0
0.906	4.051979	0
0.909	4.048885	0
0.912	4.045846	0
0.915	4.042858	0
0.918	4.039920	0
0.921	4.037030	0
0.924	4.034187	0
0.927	4.031389	0
0.930	4.028636	0
0.933	4.025924	0
0.936	4.023254	0
0.939	4.020625	0
0.942	4.018034	0
0.945	4.015482	0
0.948	4.012967	0
0.951	4.010488	0
0.954	4.008044	0
0.957	4.005635	0
0.960	4.003260	0
0.963	4.000917	0
0.966	3.998607	0
0.969	3.996328	0
0.972	3.994080	0
0.975	3.991862	0
0.978	3.989673	0
0.981	3.987513	0
0.984	3.985381	0
0.987	3.983277	0
0.990	3.981200	0
0.993	3.979149	0
0.996	3.977124	0
0.999	3.975125	0
1.012	3.966744	0
1.030	3.955844	0
1.048	3.945685	0
1.066	3.936193	0
1.084	3.927307	0
1.102	3.918969	0
1.120	3.911132	0
1.138	3.903754	0
1.156	3.896796	0
1.174	3.890225	0
1.192	3.884011	0
1.210	3.878126	0
1.228	3.872548	0
1.246	3.867253	0
1.264	3.862221	0
1.282	3.857436	0
1.300	3.852880	0
1.318	3.848537	0
1.336	3.844395	0
1.354	3.840441	0
1.372	3.836662	0
1.390	3.833049	0
1.408	3.829592	0
1.426	3.826281	0
1.444	3.823107	0
1.462	3.820064	0
1.480	3.817144	0
1.498	3.814340	0
1.516	3.811646	0
1.534	3.809056	0
1.552	3.806565	0
1.570	3.804167	0
1.588	3.801858	0
1.606	3.799634	0
1.624	3.797489	0
1.642	3.795421	0
1.660	3.793426	0
1.678	3.791499	0
1.696	3.789639	0
1.714	3.787842	0
1.732	3.786105	0
1.750	3.784425	0
1.768	3.782800	0
1.786	3.781227	0
1.804	3.779705	0
1.822	3.778230	0
1.840	3.776802	0
1.858	3.775417	0
1.876	3.774075	0
1.894	3.772773	0
1.912	3.771510	0
1.930	3.770284	0
1.948	3.769094	0
1.966	3.767939	0
1.984	3.766817	0
2.002	3.765726	0
2.020	3.764666	0
2.038	3.763636	0
2.056	3.762634	0
2.074	3.761659	0
2.092	3.760710	0
2.110	3.759787	0
2.128	3.758889	0
2.146	3.758014	0
2.164	3.757161	0
2.182	3.756331	0
2.200	3.755522	0
2.218	3.754733	0
2.236	3.753965	0
2.254	3.753215	0
2.272	3.752484	0
2.290	3.751770	0
2.308	3.751074	0
2.326	3.750395	0
2.344	3.749732	0
2.362	3.749085	0
2.380	3.748452	0
2.398	3.747835	0
2.416	3.747232	0
2.434	3.746642	0
2.452	3.746066	0
2.470	3.745503	0
2.488	3.744953	0
