Material: main / Si / Wang-45C
Optical constants. X. Wang, C. Shi, Q. Zheng, D. Thompson. Resonant enhancement of the thermoreflectance response of silicon nanodisks, Appl. Phys. Lett. 127, 061103 (2025) (Numerical data kindly provided by Qifan Zheng)
Comments: 45 Â°C. Silicon-on-insulator (SOI) wafer. Measurement method: ellipsometry.
Conditions: {"temperature": 318, "film_thickness": "224e-9", "substrate": "SiO2"}
wavelength (um)	n	k
0.40000	5.51611035	0.298962515
0.40129	5.48332089	0.287997298
0.40260	5.45129846	0.277437069
0.40391	5.41999012	0.267252569
0.40523	5.38934865	0.257425819
0.40656	5.35934720	0.247951583
0.40789	5.32994190	0.238810649
0.40924	5.30109997	0.229996583
0.41060	5.27280421	0.221509112
0.41196	5.24502436	0.213335694
0.41333	5.21774698	0.205474298
0.41472	5.19095488	0.197925157
0.41611	5.16462491	0.190677913
0.41751	5.13875363	0.183731458
0.41892	5.11332958	0.177083387
0.42034	5.08834179	0.170723262
0.42177	5.06378406	0.164649473
0.42321	5.03965353	0.158855732
0.42466	5.01593910	0.153331158
0.42612	4.99263871	0.148072501
0.42759	4.96974780	0.143070109
0.42907	4.94726052	0.138312339
0.43056	4.92517688	0.133794888
0.43206	4.90348765	0.129505407
0.43357	4.88219114	0.125431810
0.43509	4.86128391	0.121570206
0.43662	4.84075572	0.117905399
0.43816	4.82060441	0.114426477
0.43972	4.80082854	0.111129431
0.44128	4.78142072	0.107998144
0.44286	4.76236384	0.105023330
0.44444	4.74367368	0.102200665
0.44604	4.72532519	0.099514716
0.44765	4.70731241	0.096957951
0.44928	4.68964222	0.094525440
0.45091	4.67229314	0.092203746
0.45255	4.65526471	0.089986987
0.45421	4.63855162	0.087869997
0.45588	4.62213984	0.085841492
0.45756	4.60602634	0.083897408
0.45926	4.59020232	0.082032450
0.46097	4.57466016	0.080237472
0.46269	4.55939298	0.078510084
0.46442	4.54439430	0.076844896
0.46617	4.52965507	0.075234930
0.46792	4.51516618	0.073679332
0.46970	4.50092738	0.072172548
0.47148	4.48692372	0.070709632
0.47328	4.47315352	0.069290815
0.47510	4.45961141	0.067910665
0.47692	4.44628290	0.066565870
0.47876	4.43317456	0.065257407
0.48062	4.42026987	0.063980218
0.48249	4.40756387	0.062732050
0.48438	4.39505891	0.061514687
0.48627	4.38274227	0.060323046
0.48819	4.37060697	0.059156254
0.49012	4.35865559	0.058015821
0.49206	4.34688081	0.056897364
0.49402	4.33527318	0.055800924
0.49600	4.32383723	0.054727399
0.49799	4.31256154	0.053673410
0.50000	4.30143996	0.052639571
0.50202	4.29047752	0.051626080
0.50407	4.27966538	0.050630390
0.50612	4.26899620	0.049653502
0.50820	4.25847636	0.048695064
0.51029	4.24809403	0.047753261
0.51240	4.23784755	0.046829282
0.51452	4.22773824	0.045922298
0.51667	4.21776088	0.045031008
0.51883	4.20790795	0.044156778
0.52101	4.19818409	0.043298404
0.52321	4.18858301	0.042455009
0.52542	4.17910257	0.041627966
0.52766	4.16974209	0.040815791
0.52991	4.16049410	0.040017987
0.53219	4.15136411	0.039235889
0.53448	4.14234559	0.038467771
0.53680	4.13343464	0.037713438
0.53913	4.12463598	0.036912133
0.54148	4.11593912	0.036186058
0.54386	4.10734744	0.035473278
0.54626	4.09885943	0.034774601
0.54867	4.09047384	0.034088506
0.55111	4.08218247	0.033415250
0.55357	4.07399246	0.032755163
0.55605	4.06589592	0.032107075
0.55856	4.05789448	0.031471259
0.56109	4.04998695	0.030847740
0.56364	4.04216835	0.030235606
0.56621	4.03444092	0.029635180
0.56881	4.02680157	0.029046237
0.57143	4.01924809	0.028468033
0.57407	4.01178129	0.027894949
0.57674	4.00440096	0.027338521
0.57944	3.99710225	0.026792231
0.58216	3.98988319	0.026256477
0.58491	3.98274727	0.025730607
0.58768	3.97569188	0.025214261
0.59048	3.96871345	0.024707818
0.59330	3.96181306	0.024210572
0.59615	3.95498847	0.023722248
0.59903	3.94824015	0.023243204
0.60194	3.94156553	0.022822702
0.60488	3.93496073	0.022360598
0.60784	3.92843143	0.021907100
0.61084	3.92197194	0.021461539
0.61386	3.91558417	0.021023857
0.61692	3.90926417	0.020594138
0.62000	3.90301131	0.020171836
0.62312	3.89682690	0.019756914
0.62626	3.89070842	0.019349342
0.62944	3.88465583	0.018948686
0.63265	3.87866913	0.018537924
0.63590	3.87274281	0.018150986
0.63918	3.86688141	0.017770469
0.64249	3.86108332	0.017396415
0.64583	3.85534468	0.017028656
0.64921	3.84966506	0.016666926
0.65263	3.84404952	0.016311221
0.65608	3.83848918	0.015961361
0.65957	3.83298626	0.015617120
0.66310	3.82754436	0.015278536
0.66667	3.82215719	0.014945365
0.67027	3.81682548	0.014617464
0.67391	3.81155028	0.014294861
0.67760	3.80632903	0.013977314
0.68132	3.80116144	0.013664704
0.68508	3.79604892	0.013357073
0.68889	3.79098485	0.013054177
0.69274	3.78597594	0.012755924
0.69663	3.78101860	0.012462353
0.70056	3.77610945	0.012173229
0.70455	3.77125231	0.011888515
0.70857	3.76644453	0.011608172
0.71264	3.76168478	0.011332066
0.71676	3.75697267	0.011060132
0.72093	3.75230785	0.010792337
0.72515	3.74769153	0.010528549
0.72941	3.74312049	0.010268745
0.73373	3.73859747	0.010012878
0.73810	3.73411713	0.009760833
0.74251	3.72968396	0.009498596
0.74699	3.72529191	0.009254115
0.75152	3.72094602	0.009013278
0.75610	3.71664511	0.008776122
0.76074	3.71238227	0.008542556
0.76543	3.70816263	0.008312534
0.77019	3.70398750	0.008086031
0.77500	3.69985227	0.007862999
0.77987	3.69575855	0.007643358
0.78481	3.69170947	0.007427168
0.78981	3.68769745	0.007214319
0.79487	3.68372712	0.007004812
0.80000	3.67979936	0.006798613
0.80519	3.67590675	0.006595692
0.81046	3.67205190	0.006396023
0.81579	3.66823984	0.006199587
0.82119	3.66446287	0.006006360
0.82667	3.66072402	0.005816329
0.83221	3.65702257	0.005629471
0.83784	3.65335787	0.005445762
0.84354	3.64973080	0.005265180
0.84932	3.64614112	0.005087733
0.85517	3.64258350	0.004913406
0.86111	3.63906417	0.004792153
0.86713	3.63557927	0.004624001
0.87324	3.63212777	0.004458932
0.87943	3.62871255	0.004296917
0.88571	3.62533273	0.004137977
0.89209	3.62198268	0.003982080
0.89855	3.61867017	0.003829235
0.90511	3.61539087	0.003679438
0.91176	3.61214259	0.003532661
0.91852	3.60892892	0.003388926
0.92537	3.60574644	0.003248220
0.93233	3.60259561	0.003110534
0.93939	3.59948062	0.002975876
0.94656	3.59639485	0.002844237
0.95385	3.59333893	0.002715641
0.96124	3.59031871	0.002590053
0.96875	3.58732506	0.002467489
0.97638	3.58436342	0.002347962
0.98413	3.58143484	0.002231444
0.99200	3.57853471	0.002114972
1.0000	3.57566438	0.002004516
1.0081	3.57282710	0.001897106
1.0164	3.57001450	0.001792713
1.0248	3.56723445	0.001691347
1.0333	3.56448636	0.001593043
1.0420	3.56176208	0.001497786
1.0508	3.55906961	0.001405555
1.0598	3.55640819	0.001316389
1.0690	3.55377134	0.001230273
1.0783	3.55116413	0.001147228
1.0877	3.54858806	0.001067209
1.0973	3.54603665	0.000990278
1.1071	3.54351419	0.000916424
1.1171	3.54102124	0.000845643
1.1273	3.53855152	0.000777930
1.1376	3.53611446	0.000713336
1.1481	3.53370406	0.000651784
1.1589	3.53131872	0.000593356
1.1698	3.52896384	0.000537982
1.1810	3.52663416	0.000485708
1.1923	3.52433151	0.000436528
1.2039	3.52205834	0.000390403
1.2157	3.51981008	0.000347334
1.2277	3.51758739	0.000307282
1.2400	3.51539530	0.000270260
1.2525	3.51322710	0.000236176
1.2653	3.51108533	0.000205006
1.2784	3.50897368	0.000176675
1.2917	3.50688696	0.000151127
1.3053	3.50482528	0.000128255
