Material: main / Si / Wang-25C
Optical constants. X. Wang, C. Shi, Q. Zheng, D. Thompson. Resonant enhancement of the thermoreflectance response of silicon nanodisks, Appl. Phys. Lett. 127, 061103 (2025) (Numerical data kindly provided by Qifan Zheng)
Comments: 25 Â°C. Silicon-on-insulator (SOI) wafer. Measurement method: ellipsometry.
Conditions: {"temperature": 298, "film_thickness": "224e-9", "substrate": "SiO2"}
wavelength (um)	n	k
0.40000	5.49655367	0.285170605
0.40129	5.46398556	0.274516740
0.40260	5.43216362	0.264251499
0.40391	5.40104480	0.254355936
0.40523	5.37058491	0.244821849
0.40656	5.34074911	0.235625967
0.40789	5.31150336	0.226764898
0.40924	5.28282022	0.218231953
0.41060	5.25467343	0.210014063
0.41196	5.22704472	0.202115808
0.41333	5.19990946	0.194527279
0.41472	5.17325677	0.187241012
0.41611	5.14707142	0.180264327
0.41751	5.12133847	0.173581425
0.41892	5.09605564	0.167190068
0.42034	5.07121140	0.161090754
0.42177	5.04679474	0.155268399
0.42321	5.02280809	0.149722340
0.42466	4.99924027	0.144445020
0.42612	4.97608308	0.139422717
0.42759	4.95334228	0.134655436
0.42907	4.93101082	0.130128234
0.43056	4.90906857	0.125829862
0.43206	4.88753990	0.121759882
0.43357	4.86639299	0.117898539
0.43509	4.84563695	0.114239026
0.43662	4.82526725	0.110774583
0.43816	4.80527106	0.107488364
0.43972	4.78564762	0.104375862
0.44128	4.76639076	0.101425509
0.44286	4.74749319	0.098623776
0.44444	4.72895467	0.095968390
0.44604	4.71076073	0.093444245
0.44765	4.69290036	0.091042128
0.44928	4.67538222	0.088760195
0.45091	4.65817999	0.086582597
0.45255	4.64129693	0.084504797
0.45421	4.62473027	0.082521571
0.45588	4.60846049	0.080620978
0.45756	4.59248933	0.078801522
0.45926	4.57680725	0.077055127
0.46097	4.56140129	0.075373654
0.46269	4.54627207	0.073758061
0.46442	4.53140516	0.072198106
0.46617	4.51679289	0.070689830
0.46792	4.50243870	0.069233848
0.46970	4.48832174	0.067820654
0.47148	4.47444422	0.066449788
0.47328	4.46079640	0.065119261
0.47510	4.44737215	0.063822545
0.47692	4.43416631	0.062561416
0.47876	4.42116793	0.061331434
0.48062	4.40837629	0.060128939
0.48249	4.39578565	0.058957104
0.48438	4.38338709	0.057809640
0.48627	4.37117508	0.056686049
0.48819	4.35914888	0.055588028
0.49012	4.34729842	0.054510358
0.49206	4.33562074	0.053454522
0.49402	4.32411590	0.052419737
0.49600	4.31277170	0.051403011
0.49799	4.30159046	0.050406783
0.50000	4.29056310	0.049428448
0.50202	4.27968904	0.048466537
0.50407	4.26896850	0.047524257
0.50612	4.25838742	0.046597510
0.50820	4.24794752	0.045686971
0.51029	4.23765084	0.044793933
0.51240	4.22748549	0.043915477
0.51452	4.21745384	0.043053181
0.51667	4.20755738	0.042206466
0.51883	4.19777973	0.041373790
0.52101	4.18813383	0.040557213
0.52321	4.17860654	0.039754789
0.52542	4.16919300	0.038965990
0.52766	4.15990427	0.038193028
0.52991	4.15073183	0.037433009
0.53219	4.14166418	0.036686864
0.53448	4.13271455	0.035955086
0.53680	4.12386794	0.035235938
0.53913	4.11513073	0.034530586
0.54148	4.10649934	0.033838400
0.54386	4.09796553	0.033158438
0.54626	4.08953852	0.032492133
0.54867	4.08121076	0.031837908
0.55111	4.07297592	0.031195597
0.55357	4.06484368	0.030566403
0.55605	4.05680234	0.029948482
0.55856	4.04885282	0.029342388
0.56109	4.04099721	0.028748248
0.56364	4.03322913	0.028164922
0.56621	4.02555365	0.027593163
0.56881	4.01796543	0.027032347
0.57143	4.01045897	0.026481857
0.57407	4.00304321	0.025942585
0.57674	3.99570543	0.025413348
0.57944	3.98845168	0.024894054
0.58216	3.98128065	0.024385284
0.58491	3.97418900	0.023885833
0.58768	3.96717503	0.023396053
0.59048	3.96023834	0.022915849
0.59330	3.95337790	0.022444466
0.59615	3.94659614	0.021982353
0.59903	3.93988570	0.021528969
0.60194	3.93324877	0.021133919
0.60488	3.92668723	0.020697715
0.60784	3.92019585	0.020269473
0.61084	3.91377177	0.019849193
0.61386	3.90742347	0.019437038
0.61692	3.90113529	0.019032338
0.62000	3.89492254	0.018635197
0.62312	3.88877441	0.018245477
0.62626	3.88268901	0.017862721
0.62944	3.87667294	0.017487165
0.63265	3.87071783	0.017118358
0.63590	3.86482478	0.016756091
0.63918	3.85899898	0.016400598
0.64249	3.85323424	0.016051283
0.64583	3.84752472	0.015708188
0.64921	3.84188041	0.015371283
0.65263	3.83629749	0.015040143
0.65608	3.83076667	0.014714886
0.65957	3.82529800	0.014395284
0.66310	3.81988520	0.014081100
0.66667	3.81452943	0.013772442
0.67027	3.80922861	0.013468994
0.67391	3.80398424	0.013170596
0.67760	3.79879119	0.012877420
0.68132	3.79365597	0.012589029
0.68508	3.78857059	0.012305454
0.68889	3.78354027	0.012026657
0.69274	3.77855917	0.011752371
0.69663	3.77363041	0.011482639
0.70056	3.76875225	0.011217310
0.70455	3.76392244	0.010956233
0.70857	3.75914519	0.010699455
0.71264	3.75441421	0.010446780
0.71676	3.74973104	0.010198139
0.72093	3.74509751	0.009953535
0.72515	3.74050853	0.009712791
0.72941	3.73596847	0.009475864
0.73373	3.73147441	0.009242724
0.73810	3.72702204	0.009013246
0.74251	3.72261895	0.008787404
0.74699	3.71825562	0.008565138
0.75152	3.71393628	0.008346347
0.75610	3.70966467	0.008131034
0.76074	3.70543126	0.007919103
0.76543	3.70123990	0.007710498
0.77019	3.69709679	0.007505211
0.77500	3.69298951	0.007303157
0.77987	3.68892683	0.007104294
0.78481	3.68490672	0.006908598
0.78981	3.68092201	0.006716013
0.79487	3.67698195	0.006526528
0.80000	3.67308189	0.006340070
0.80519	3.66921634	0.006156632
0.81046	3.66539382	0.005976182
0.81579	3.66160975	0.005798660
0.82119	3.65786074	0.005624060
0.82667	3.65415325	0.005452372
0.83221	3.65048148	0.005283527
0.83784	3.64684531	0.005117548
0.84354	3.64324697	0.004954367
0.84932	3.63968344	0.004794006
0.85517	3.63615667	0.004636421
0.86111	3.63266622	0.004531595
0.86713	3.62920853	0.004379508
0.87324	3.62578805	0.004230156
0.87943	3.62240212	0.004083519
0.88571	3.61904844	0.003939591
0.89209	3.61572935	0.003798360
0.89855	3.61244565	0.003659765
0.90511	3.60919418	0.003523862
0.91176	3.60597586	0.003390629
0.91852	3.60278914	0.003260030
0.92537	3.59963648	0.003132075
0.93233	3.59651571	0.003006747
0.93939	3.59342525	0.002884061
0.94656	3.59037013	0.002763981
0.95385	3.58734327	0.002646537
0.96124	3.58434879	0.002531690
0.96875	3.58138460	0.002419454
0.97638	3.57845184	0.002309826
0.98413	3.57555087	0.002202807
0.99200	3.57267745	0.002098337
1.0000	3.56983496	0.001996552
1.0081	3.56702387	0.001897314
1.0164	3.56424075	0.001800680
1.0248	3.56148689	0.001706660
1.0333	3.55876437	0.001615210
1.0420	3.55606924	0.001526347
1.0508	3.55340203	0.001440097
1.0598	3.55076680	0.001356482
1.0690	3.54815622	0.001275410
1.0783	3.54557561	0.001196940
1.0877	3.54302605	0.001121089
1.0973	3.54049869	0.001047864
1.1071	3.53800265	0.000977253
1.1171	3.53553474	0.000909189
1.1273	3.53309064	0.000843813
1.1376	3.53067659	0.000781013
1.1481	3.52829067	0.000720856
1.1589	3.52592852	0.000663258
1.1698	3.52359705	0.000608292
1.1810	3.52129000	0.000555974
1.1923	3.51901068	0.000506267
1.2039	3.51675803	0.000459188
1.2157	3.51453131	0.000414724
1.2277	3.51233166	0.000372889
1.2400	3.51015827	0.000333623
1.2525	3.50801037	0.000296971
1.2653	3.50588804	0.000262879
1.2784	3.50379358	0.000231383
1.2917	3.50172508	0.000202311
1.3053	3.49968080	0.000175769
