Material: main / Si / Wang-55C
Optical constants. X. Wang, C. Shi, Q. Zheng, D. Thompson. Resonant enhancement of the thermoreflectance response of silicon nanodisks, Appl. Phys. Lett. 127, 061103 (2025) (Numerical data kindly provided by Qifan Zheng)
Comments: Temperature 55 Â°C."
Conditions: {"temperature": 328, "film_thickness": "224e-9", "substrate": "SiO2"}
wavelength (um)	n	k
0.40000	5.52417063	0.305567588
0.40129	5.49125586	0.294499077
0.40260	5.45911778	0.283831590
0.40391	5.42769631	0.273540049
0.40523	5.39695365	0.263610657
0.40656	5.36684895	0.254028795
0.40789	5.33735556	0.244779829
0.40924	5.30842982	0.235860217
0.41060	5.28005514	0.227262941
0.41196	5.25220039	0.218979704
0.41333	5.22484376	0.211009708
0.41472	5.19797802	0.203349461
0.41611	5.17158285	0.195991098
0.41751	5.14564261	0.188933569
0.41892	5.12015302	0.182174052
0.42034	5.09510000	0.175703096
0.42177	5.07047557	0.169517593
0.42321	5.04628065	0.163613804
0.42466	5.02250116	0.157980280
0.42612	4.99913222	0.152611108
0.42759	4.97617690	0.147501681
0.42907	4.95362781	0.142638277
0.43056	4.93147235	0.138013183
0.43206	4.90971948	0.133621018
0.43357	4.88835572	0.129446645
0.43509	4.86737973	0.125481419
0.43662	4.84678794	0.121719422
0.43816	4.82657186	0.118145365
0.43972	4.80672489	0.114749895
0.44128	4.78724773	0.111527837
0.44286	4.76812884	0.108464039
0.44444	4.74936140	0.105549328
0.44604	4.73094680	0.102779074
0.44765	4.71287107	0.100139466
0.44928	4.69512550	0.097622089
0.45091	4.67771532	0.095222694
0.45255	4.66062014	0.092929520
0.45421	4.64383196	0.090734967
0.45588	4.62735475	0.088635590
0.45756	4.61117478	0.086621467
0.45926	4.59528003	0.084686070
0.46097	4.57967798	0.082826716
0.46269	4.56434100	0.081035611
0.46442	4.54927425	0.079306910
0.46617	4.53447264	0.077638940
0.46792	4.51991971	0.076025556
0.46970	4.50561132	0.074461898
0.47148	4.49155033	0.072946863
0.47328	4.47771732	0.071475955
0.47510	4.46411172	0.070045006
0.47692	4.45072630	0.068653642
0.47876	4.43755374	0.067298443
0.48062	4.42458864	0.065976096
0.48249	4.41182727	0.064686425
0.48438	4.39926190	0.063427184
0.48627	4.38688958	0.062195487
0.48819	4.37470297	0.060991508
0.49012	4.36269621	0.059813828
0.49206	4.35086635	0.058659948
0.49402	4.33920892	0.057530102
0.49600	4.32771972	0.056423619
0.49799	4.31639139	0.055338273
0.50000	4.30522722	0.054274316
0.50202	4.29421259	0.053231641
0.50407	4.28335445	0.052208088
0.50612	4.27263965	0.051204067
0.50820	4.26207283	0.050219656
0.51029	4.25164819	0.049253009
0.51240	4.24136041	0.048304378
0.51452	4.23120757	0.047374157
0.51667	4.22118878	0.046460586
0.51883	4.21129803	0.045563803
0.52101	4.20153759	0.044684418
0.52321	4.19189857	0.043820816
0.52542	4.18237970	0.042972986
0.52766	4.17298313	0.042141657
0.52991	4.16370713	0.041325226
0.53219	4.15453761	0.040523763
0.53448	4.14548706	0.039737904
0.53680	4.13654718	0.038966239
0.53913	4.12771245	0.038190651
0.54148	4.11899090	0.037447823
0.54386	4.11037141	0.036718489
0.54626	4.10185306	0.035992476
0.54867	4.09343742	0.035290376
0.55111	4.08512356	0.034601039
0.55357	4.07690198	0.033919320
0.55605	4.06878204	0.033255598
0.55856	4.06076031	0.032603964
0.56109	4.05282458	0.031964209
0.56364	4.04498474	0.031336626
0.56621	4.03723755	0.030720464
0.56881	4.02957246	0.030115471
0.57143	4.02200165	0.029521800
0.57407	4.01451412	0.028938910
0.57674	4.00710896	0.028366452
0.57944	3.99979151	0.027804561
0.58216	3.99255676	0.027252772
0.58491	3.98539895	0.026710738
0.58768	3.97832800	0.026178511
0.59048	3.97133128	0.025655772
0.59330	3.96440991	0.025142137
0.59615	3.95756712	0.024637620
0.59903	3.95080200	0.024141935
0.60194	3.94410880	0.023664731
0.60488	3.93749312	0.023185999
0.60784	3.93094713	0.022715511
0.61084	3.92447107	0.022252928
0.61386	3.91806664	0.021798214
0.61692	3.91173324	0.021351179
0.62000	3.90546332	0.020911520
0.62312	3.89926369	0.020479154
0.62626	3.89313095	0.020053956
0.62944	3.88706077	0.019635633
0.63265	3.88105720	0.019224081
0.63590	3.87511993	0.018819227
0.63918	3.86924028	0.018420777
0.64249	3.86342658	0.018028636
0.64583	3.85767621	0.017642741
0.64921	3.85198094	0.017262857
0.65263	3.84634777	0.016858852
0.65608	3.84077417	0.016459706
0.65957	3.83525748	0.016097169
0.66310	3.82979710	0.015740161
0.66667	3.82439601	0.015388634
0.67027	3.81904838	0.015042392
0.67391	3.81375563	0.014701342
0.67760	3.80851898	0.014365463
0.68132	3.80333767	0.014034545
0.68508	3.79820590	0.013708537
0.68889	3.79312759	0.013387424
0.69274	3.78810356	0.013071004
0.69663	3.78312762	0.012759245
0.70056	3.77820361	0.012452109
0.70455	3.77332906	0.012149476
0.70857	3.76850384	0.011851260
0.71264	3.76372516	0.011557464
0.71676	3.75899820	0.011267960
0.72093	3.75431569	0.010982695
0.72515	3.74968032	0.010701651
0.72941	3.74509444	0.010424716
0.73373	3.74055275	0.010151891
0.73810	3.73605240	0.009883116
0.74251	3.73160155	0.009602329
0.74699	3.72719070	0.009341486
0.75152	3.72282392	0.009084567
0.75610	3.71850299	0.008831520
0.76074	3.71422201	0.008582307
0.76543	3.70998328	0.008336922
0.77019	3.70578859	0.008095292
0.77500	3.70163361	0.007857403
0.77987	3.69752137	0.007623250
0.78481	3.69345030	0.007392788
0.78981	3.68941789	0.007165988
0.79487	3.68542663	0.006942846
0.80000	3.68147645	0.006723320
0.80519	3.67756415	0.006507421
0.81046	3.67368926	0.006295124
0.81579	3.66985651	0.006086389
0.82119	3.66605731	0.005881241
0.82667	3.66229673	0.005679645
0.83221	3.65857771	0.005481600
0.83784	3.65489008	0.005287096
0.84354	3.65124029	0.005096087
0.84932	3.64763073	0.004908637
0.85517	3.64405116	0.004724688
0.86111	3.64050792	0.004594241
0.86713	3.63700445	0.004417323
0.87324	3.63353102	0.004243875
0.87943	3.63009308	0.004073953
0.88571	3.62669086	0.003907521
0.89209	3.62332146	0.003744570
0.89855	3.61998609	0.003585127
0.90511	3.61668394	0.003429184
0.91176	3.61341429	0.003276760
0.91852	3.61017700	0.003127806
0.92537	3.60697484	0.002982344
0.93233	3.60380351	0.002840406
0.93939	3.60066292	0.002701979
0.94656	3.59755825	0.002567031
0.95385	3.59448159	0.002435615
0.96124	3.59143667	0.002307726
0.96875	3.58842524	0.002183351
0.97638	3.58544333	0.002062504
0.98413	3.58249086	0.001945183
0.99200	3.57957152	0.001828404
1.0000	3.57667879	0.001718155
1.0081	3.57381982	0.001611494
1.0164	3.57098890	0.001508357
1.0248	3.56818945	0.001408757
1.0333	3.56541780	0.001312737
1.0420	3.56267835	0.001220294
1.0508	3.55996635	0.001131458
1.0598	3.55728288	0.001046182
1.0690	3.55462899	0.000964485
1.0783	3.55200416	0.000886409
1.0877	3.54940781	0.000811921
1.0973	3.54683895	0.000741039
1.1071	3.54430164	0.000673746
1.1171	3.54179126	0.000610091
1.1273	3.53930810	0.000550014
1.1376	3.53685422	0.000493538
1.1481	3.53442772	0.000440660
1.1589	3.53202931	0.000391358
1.1698	3.52965936	0.000345591
1.1810	3.52731824	0.000303323
1.1923	3.52500247	0.000264491
1.2039	3.52271782	0.000229044
1.2157	3.52046001	0.000196898
1.2277	3.51822959	0.000167976
1.2400	3.51602675	0.000142125
1.2525	3.51385328	0.000119270
1.2653	3.51170481	9.91023E-05
1.2784	3.50958684	8.15915E-05
1.2917	3.50749790	6.65389E-05
1.3053	3.50543189	5.36941E-05
