Material: main / Si / Wang-35C
Optical constants. X. Wang, C. Shi, Q. Zheng, D. Thompson. Resonant enhancement of the thermoreflectance response of silicon nanodisks, Appl. Phys. Lett. 127, 061103 (2025) (Numerical data kindly provided by Qifan Zheng)
Comments: 35 Â°C. Silicon-on-insulator (SOI) wafer. Measurement method: ellipsometry.
Conditions: {"temperature": 308, "film_thickness": "224e-9", "substrate": "SiO2"}
wavelength (um)	n	k
0.40000	5.50827048	0.291280557
0.40129	5.47546022	0.280479041
0.40260	5.44341198	0.270079702
0.40391	5.41208760	0.260057897
0.40523	5.38143038	0.250391857
0.40656	5.35140882	0.241077435
0.40789	5.32199804	0.232095756
0.40924	5.29314613	0.223439370
0.41060	5.26484646	0.215109392
0.41196	5.23707133	0.207091202
0.41333	5.20979207	0.199385196
0.41472	5.18300392	0.191989056
0.41611	5.15668797	0.184892113
0.41751	5.13082346	0.178097452
0.41892	5.10541867	0.171596319
0.42034	5.08045085	0.165380559
0.42177	5.05591501	0.159453202
0.42321	5.03180865	0.153799346
0.42466	5.00812344	0.148413288
0.42612	4.98485285	0.143293089
0.42759	4.96199509	0.138422268
0.42907	4.93954561	0.133796879
0.43056	4.91750172	0.129407869
0.43206	4.89585208	0.125240948
0.43357	4.87460076	0.121292542
0.43509	4.85373603	0.117548892
0.43662	4.83325536	0.113997164
0.43816	4.81315674	0.110635438
0.43972	4.79342997	0.107445554
0.44128	4.77407041	0.104419450
0.44286	4.75507592	0.101551546
0.44444	4.73643488	0.098825694
0.44604	4.71814297	0.096237065
0.44765	4.70019081	0.093776382
0.44928	4.68257301	0.091431145
0.45091	4.66528648	0.089198923
0.45255	4.64831705	0.087067818
0.45421	4.63165790	0.085029130
0.45588	4.61530876	0.083082418
0.45756	4.59925181	0.081214170
0.45926	4.58348650	0.079420577
0.46097	4.56800634	0.077698427
0.46269	4.55279832	0.076037679
0.46442	4.53785564	0.074437418
0.46617	4.52318000	0.072891861
0.46792	4.50874727	0.071394624
0.46970	4.49456719	0.069946558
0.47148	4.48062445	0.068540344
0.47328	4.46690895	0.067172734
0.47510	4.45342238	0.065845194
0.47692	4.44015548	0.064550021
0.47876	4.42709632	0.063287287
0.48062	4.41424870	0.062056059
0.48249	4.40160000	0.060851213
0.48438	4.38914655	0.059674459
0.48627	4.37688085	0.058522865
0.48819	4.36480192	0.057393519
0.49012	4.35290009	0.056289292
0.49206	4.34117528	0.055205519
0.49402	4.32961775	0.054141776
0.49600	4.31822929	0.053100083
0.49799	4.30700076	0.052076058
0.50000	4.29593047	0.051071106
0.50202	4.28501161	0.050085089
0.50407	4.27424157	0.049115297
0.50612	4.26362475	0.048163895
0.50820	4.25314043	0.047229174
0.51029	4.24279960	0.046309746
0.51240	4.23260005	0.045408301
0.51452	4.22252775	0.044521713
0.51667	4.21258894	0.043650336
0.51883	4.20277724	0.042795580
0.52101	4.19308762	0.041954848
0.52321	4.18352556	0.041129428
0.52542	4.17408073	0.040319095
0.52766	4.16474997	0.039522355
0.52991	4.15554142	0.038740865
0.53219	4.14644520	0.037973188
0.53448	4.13745110	0.037218761
0.53680	4.12857885	0.036479358
0.53913	4.11980674	0.035727218
0.54148	4.11113758	0.035013861
0.54386	4.10257813	0.034314361
0.54626	4.09411466	0.033627132
0.54867	4.08575467	0.032953116
0.55111	4.07749378	0.032291809
0.55357	4.06932499	0.031642351
0.55605	4.06125467	0.031005861
0.55856	4.05327640	0.030381081
0.56109	4.04538817	0.029767729
0.56364	4.03759262	0.029166878
0.56621	4.02988760	0.028576852
0.56881	4.02226630	0.027998127
0.57143	4.01473386	0.027430787
0.57407	4.00728827	0.026873772
0.57674	3.99992498	0.026327742
0.57944	3.99264547	0.025792130
0.58216	3.98544466	0.025266376
0.58491	3.97832734	0.024751160
0.58768	3.97128494	0.024245520
0.59048	3.96432317	0.023749295
0.59330	3.95743853	0.023262972
0.59615	3.95062782	0.022785507
0.59903	3.94389511	0.022317130
0.60194	3.93723320	0.021907788
0.60488	3.93064469	0.021456790
0.60784	3.92412843	0.021014491
0.61084	3.91768170	0.020580411
0.61386	3.91130425	0.020154202
0.61692	3.90500013	0.019736230
0.62000	3.89875973	0.019325791
0.62312	3.89258636	0.018922820
0.62626	3.88648182	0.018527471
0.62944	3.88043938	0.018139111
0.63265	3.87446402	0.017744852
0.63590	3.86855187	0.017370547
0.63918	3.86270016	0.017002782
0.64249	3.85691422	0.016641730
0.64583	3.85118568	0.016287048
0.64921	3.84551471	0.015938513
0.65263	3.83991064	0.015596285
0.65608	3.83436308	0.015259877
0.65957	3.82887159	0.014929294
0.66310	3.82344043	0.014604526
0.66667	3.81806253	0.014285197
0.67027	3.81274236	0.013971366
0.67391	3.80748028	0.013662861
0.67760	3.80226623	0.013359472
0.68132	3.79711027	0.013061262
0.68508	3.79200744	0.012767973
0.68889	3.78695579	0.012479470
0.69274	3.78195738	0.012195848
0.69663	3.77701077	0.011916793
0.70056	3.77211201	0.011642283
0.70455	3.76726837	0.011372290
0.70857	3.76247145	0.011106583
0.71264	3.75772142	0.010845202
0.71676	3.75302297	0.010588011
0.72093	3.74837198	0.010334884
0.72515	3.74376606	0.010085843
0.72941	3.73920829	0.009840735
0.73373	3.73469606	0.009599478
0.73810	3.73022852	0.009362091
0.74251	3.72580677	0.009118913
0.74699	3.72142925	0.008888917
0.75152	3.71709496	0.008662572
0.75610	3.71280309	0.008439747
0.76074	3.70855696	0.008220458
0.76543	3.70435229	0.008004626
0.77019	3.70018791	0.007792154
0.77500	3.69607036	0.007583082
0.77987	3.69198887	0.007377302
0.78481	3.68795147	0.007174767
0.78981	3.68395674	0.006975489
0.79487	3.67999910	0.006779379
0.80000	3.67608326	0.006586396
0.80519	3.67220646	0.006396547
0.81046	3.66836731	0.006209766
0.81579	3.66456901	0.006026035
0.82119	3.66080741	0.005845316
0.82667	3.65708217	0.005667572
0.83221	3.65339889	0.005492815
0.83784	3.64975007	0.005320980
0.84354	3.64613663	0.005152063
0.84932	3.64256029	0.004986040
0.85517	3.63902148	0.004822879
0.86111	3.63551513	0.004712557
0.86713	3.63204766	0.004555096
0.87324	3.62861202	0.004400440
0.87943	3.62521327	0.004248590
0.88571	3.62184850	0.004099536
0.89209	3.61851610	0.003953229
0.89855	3.61521880	0.003809726
0.90511	3.61195587	0.003668942
0.91176	3.60872311	0.003530895
0.91852	3.60552575	0.003395619
0.92537	3.60236090	0.003263051
0.93233	3.59922816	0.003133196
0.93939	3.59612701	0.003006063
0.94656	3.59305950	0.002881603
0.95385	3.59002057	0.002759871
0.96124	3.58701441	0.002640817
0.96875	3.58404045	0.002524458
0.97638	3.58109591	0.002410784
0.98413	3.57818153	0.002299786
0.99200	3.57529977	0.002188499
1.0000	3.57244432	0.002082882
1.0081	3.56962125	0.001979960
1.0164	3.56682856	0.001879682
1.0248	3.56406447	0.001782081
1.0333	3.56132983	0.001687179
1.0420	3.55862559	0.001594912
1.0508	3.55594771	0.001505381
1.0598	3.55329986	0.001418502
1.0690	3.55068236	0.001334322
1.0783	3.54809030	0.001252791
1.0877	3.54552862	0.001173955
1.0973	3.54299367	0.001097836
1.1071	3.54048570	0.001024376
1.1171	3.53800837	0.000953587
1.1273	3.53555611	0.000885503
1.1376	3.53313123	0.000820123
1.1481	3.53073573	0.000757433
1.1589	3.52836620	0.000697435
1.1698	3.52602279	0.000640179
1.1810	3.52370855	0.000585582
1.1923	3.52141886	0.000533687
1.2039	3.51915574	0.000484543
1.2157	3.51692168	0.000438068
1.2277	3.51471127	0.000394276
1.2400	3.51252923	0.000353165
1.2525	3.51037362	0.000314766
1.2653	3.50824295	0.000279021
1.2784	3.50613994	0.000245853
1.2917	3.50406290	0.000215358
1.3053	3.50200926	0.000187357
