Material: main / Si / Wang-65C
Optical constants. X. Wang, C. Shi, Q. Zheng, D. Thompson. Resonant enhancement of the thermoreflectance response of silicon nanodisks, Appl. Phys. Lett. 127, 061103 (2025) (Numerical data kindly provided by Qifan Zheng)
Comments: 65 Â°C. Silicon-on-insulator (SOI) wafer. Measurement method: ellipsometry.
Conditions: {"temperature": 338, "film_thickness": "224e-9", "substrate": "SiO2"}
wavelength (um)	n	k
0.40000	5.53177720	0.316233550
0.40129	5.49900032	0.304769731
0.40260	5.46698483	0.293722166
0.40391	5.43567531	0.283061989
0.40523	5.40502930	0.272773368
0.40656	5.37501530	0.262843911
0.40789	5.34558692	0.253257276
0.40924	5.31672507	0.244007245
0.41060	5.28839834	0.235089659
0.41196	5.26058090	0.226494271
0.41333	5.23325322	0.218219467
0.41472	5.20640850	0.210263373
0.41611	5.18001746	0.202617464
0.41751	5.15407356	0.195280361
0.41892	5.12856976	0.188250245
0.42034	5.10349437	0.181517190
0.42177	5.07883695	0.175078660
0.42321	5.05460370	0.168930817
0.42466	5.03077745	0.163062414
0.42612	5.00735910	0.157468136
0.42759	4.98434489	0.152142722
0.42907	4.96172582	0.147073023
0.43056	4.93950187	0.142251873
0.43206	4.91767919	0.137672305
0.43357	4.89623171	0.133320283
0.43509	4.87517189	0.129187857
0.43662	4.85449655	0.125266665
0.43816	4.83418937	0.121542587
0.43972	4.81425687	0.118007091
0.44128	4.79468990	0.114652225
0.44286	4.77547968	0.111463890
0.44444	4.75662581	0.108433838
0.44604	4.73811843	0.105554776
0.44765	4.71995120	0.102813364
0.44928	4.70212026	0.100202255
0.45091	4.68462142	0.097714870
0.45255	4.66743895	0.095339325
0.45421	4.65057015	0.093069295
0.45588	4.63401569	0.090899246
0.45756	4.61774877	0.088818948
0.45926	4.60178315	0.086822926
0.46097	4.58610072	0.084907201
0.46269	4.57069183	0.083062639
0.46442	4.55555542	0.081285209
0.46617	4.54068525	0.079571843
0.46792	4.52606825	0.077914969
0.46970	4.51170041	0.076311546
0.47148	4.49757746	0.074759537
0.47328	4.48368605	0.073252658
0.47510	4.47002514	0.071788675
0.47692	4.45658746	0.070366491
0.47876	4.44336280	0.068980791
0.48062	4.43034934	0.067630209
0.48249	4.41754407	0.066314127
0.48438	4.40493051	0.065028291
0.48627	4.39251716	0.063771698
0.48819	4.38028841	0.062544454
0.49012	4.36824219	0.061342809
0.49206	4.35637331	0.060166363
0.49402	4.34468107	0.059015324
0.49600	4.33315363	0.057886742
0.49799	4.32179424	0.056780316
0.50000	4.31059456	0.055696640
0.50202	4.29955026	0.054633044
0.50407	4.28865925	0.053589502
0.50612	4.27791630	0.052566666
0.50820	4.26732114	0.051562216
0.51029	4.25686831	0.050576266
0.51240	4.24655241	0.049609520
0.51452	4.23637571	0.048659874
0.51667	4.22632960	0.047727550
0.51883	4.21641615	0.046813113
0.52101	4.20662775	0.045914893
0.52321	4.19696392	0.045032967
0.52542	4.18742505	0.044167902
0.52766	4.17800531	0.043318175
0.52991	4.16870361	0.042483864
0.53219	4.15951528	0.041665574
0.53448	4.15044412	0.040861772
0.53680	4.14148013	0.040072655
0.53913	4.13262964	0.039268607
0.54148	4.12388302	0.038497411
0.54386	4.11524131	0.037740082
0.54626	4.10670519	0.037008020
0.54867	4.09826960	0.036289094
0.55111	4.08993351	0.035583273
0.55357	4.08169775	0.034890914
0.55605	4.07355688	0.034210983
0.55856	4.06551309	0.033543421
0.56109	4.05756239	0.032868518
0.56364	4.04970204	0.032213355
0.56621	4.04193365	0.031571833
0.56881	4.03425475	0.030944210
0.57143	4.02666255	0.030335609
0.57407	4.01915517	0.029725967
0.57674	4.01173753	0.029129419
0.57944	4.00440071	0.028553251
0.58216	3.99714693	0.027987329
0.58491	3.98997650	0.027431788
0.58768	3.98288314	0.026885965
0.59048	3.97587031	0.026349725
0.59330	3.96893451	0.025823179
0.59615	3.96207594	0.025305686
0.59903	3.95529097	0.024797161
0.60194	3.94858373	0.024347644
0.60488	3.94194790	0.023856609
0.60784	3.93538439	0.023373917
0.61084	3.92889493	0.022899604
0.61386	3.92247491	0.022433207
0.61692	3.91612243	0.021974592
0.62000	3.90984024	0.021523781
0.62312	3.90362560	0.021080347
0.62626	3.89747319	0.020644185
0.62944	3.89139454	0.020215261
0.63265	3.88537506	0.019793238
0.63590	3.87941761	0.019378003
0.63918	3.87352877	0.018969514
0.64249	3.86770061	0.018567458
0.64583	3.86192999	0.018171747
0.64921	3.85622308	0.017782352
0.65263	3.85057623	0.017398969
0.65608	3.84498605	0.017021517
0.65957	3.83945805	0.016649974
0.66310	3.83398551	0.016284080
0.66667	3.82856592	0.015923770
0.67027	3.82320784	0.015568974
0.67391	3.81790355	0.015219510
0.67760	3.81265138	0.014875294
0.68132	3.80745514	0.014536280
0.68508	3.80231401	0.014202306
0.68889	3.79722007	0.013873281
0.69274	3.79218417	0.013549169
0.69663	3.78719598	0.013229845
0.70056	3.78225734	0.012915213
0.70455	3.77737177	0.012590258
0.70857	3.77253389	0.012269844
0.71264	3.76774479	0.011968906
0.71676	3.76300457	0.011672431
0.72093	3.75831212	0.011380299
0.72515	3.75366478	0.011092463
0.72941	3.74906602	0.010808897
0.73373	3.74451131	0.010529507
0.73810	3.74000024	0.010254255
0.74251	3.73553842	0.009983105
0.74699	3.73111736	0.009715997
0.75152	3.72674051	0.009452881
0.75610	3.72240845	0.009193723
0.76074	3.71811622	0.008938505
0.76543	3.71386677	0.008687161
0.77019	3.70966267	0.008439682
0.77500	3.70549650	0.008181019
0.77987	3.70137306	0.007941134
0.78481	3.69729440	0.007695035
0.78981	3.69325092	0.007462673
0.79487	3.68924930	0.007234007
0.80000	3.68529105	0.007009051
0.80519	3.68136789	0.006787761
0.81046	3.67748505	0.006570132
0.81579	3.67364255	0.006356145
0.82119	3.66983451	0.006145786
0.82667	3.66606522	0.005929022
0.83221	3.66233477	0.005725863
0.83784	3.65863968	0.005526294
0.84354	3.65498137	0.005330303
0.84932	3.65136097	0.005137871
0.85517	3.64777379	0.004949012
0.86111	3.64422302	0.004801700
0.86713	3.64071010	0.004619936
0.87324	3.63722803	0.004441709
0.87943	3.63378195	0.004267035
0.88571	3.63037116	0.004095891
0.89209	3.62699263	0.003928284
0.89855	3.62364931	0.003764210
0.90511	3.62033851	0.003603655
0.91176	3.61706226	0.003446639
0.91852	3.61381747	0.003293163
0.92537	3.61060688	0.003143216
0.93233	3.60742727	0.002996799
0.93939	3.60428011	0.002853929
0.94656	3.60116616	0.002714594
0.95385	3.59808248	0.002578796
0.96124	3.59502887	0.002446533
0.96875	3.59200984	0.002317825
0.97638	3.58901903	0.002192697
0.98413	3.58605953	0.002071126
0.99200	3.58313327	0.001950102
1.0000	3.58023408	0.001835621
1.0081	3.57736612	0.001724768
1.0164	3.57453013	0.001617447
1.0248	3.57172252	0.001513735
1.0333	3.56894442	0.001413596
1.0420	3.56619557	0.001317063
1.0508	3.56347668	0.001224127
1.0598	3.56078633	0.001134820
1.0690	3.55812533	0.001049113
1.0783	3.55549280	0.000967013
1.0877	3.55289001	0.000888544
1.0973	3.55031624	0.000813739
1.1071	3.54776824	0.000742527
1.1171	3.54525091	0.000674944
1.1273	3.54276238	0.000611033
1.1376	3.54029947	0.000550739
1.1481	3.53786547	0.000494052
1.1589	3.53546154	0.000441004
1.1698	3.53308417	0.000391536
1.1810	3.53073467	0.000345615
1.1923	3.52841240	0.000303238
1.2039	3.52611952	0.000264344
1.2157	3.52385395	0.000228854
1.2277	3.52161583	0.000196686
1.2400	3.51940670	0.000167710
1.2525	3.51722290	0.000141817
1.2653	3.51506984	1.18938E-04
1.2784	3.51294310	9.88223E-05
1.2917	3.51084298	8.13614E-05
1.3053	3.50877186	6.62946E-05
