Material: main / Al2O3 / Zhukovsky
Optical constants. S. V. Zhukovsky, A. Andryieuski, O. Takayama, E. Shkondin, R. Malureanu, F. Jensen, A. V. Lavrinenko. Experimental demonstration of effective medium approximation breakdown in deeply subwavelength all-dielectric multilayers, Phys. Rev. Lett. 115, 177402 (2015) (Numerical data kindly provided by Osamu Takayama)
Comments: 20 nm thick films on Si substrate deposited by atomic layer deposition (ALD) at 120 Â°C deposition temperature.
Specs: {"n_is_absolute": true, "wavelength_is_vacuum": true, "film_thickness": "20e-9", "substrate": "Si"}
wavelength (um)	n	k
0.211002	1.785916	0.001309
0.214150	1.777640	0.000955
0.217299	1.770087	0.000703
0.220447	1.763159	0.000522
0.223596	1.756776	0.000391
0.226746	1.750874	0.000295
0.229896	1.745395	0.000225
0.233046	1.740294	0.000172
0.236196	1.735530	0.000133
0.239347	1.731069	0.000103
0.242498	1.726882	0.000081
0.245649	1.722944	0.000064
0.248800	1.719233	0.000050
0.251952	1.715729	0.000040
0.255105	1.712414	0.000032
0.258257	1.709274	0.000026
0.261410	1.706295	0.000021
0.264563	1.703465	0.000017
0.267716	1.700773	0.000014
0.270870	1.698210	0.000012
0.274024	1.695766	0.000010
0.277178	1.693433	0.000008
0.280332	1.691205	0.000007
0.283487	1.689074	0.000006
0.286642	1.687034	0.000005
0.289797	1.685080	0.000004
0.292952	1.683207	0.000003
0.296108	1.681410	0.000003
0.299264	1.679685	0.000002
0.302420	1.678027	0.000002
0.305576	1.676433	0.000002
0.308733	1.674899	0.000002
0.311890	1.673423	0.000001
0.315047	1.672001	0.000001
0.318204	1.670630	0.000001
0.321362	1.669308	0.000001
0.324520	1.668032	0.000001
0.327678	1.666801	0.000001
0.330836	1.665612	0.000001
0.333994	1.664462	0.000001
0.337153	1.663351	0
0.340311	1.662277	0
0.343470	1.661237	0
0.346630	1.660230	0
0.349789	1.659255	0
0.352948	1.658311	0
0.356108	1.657395	0
0.359268	1.656508	0
0.362428	1.655647	0
0.365588	1.654812	0
0.368749	1.654001	0
0.371909	1.653214	0
0.375070	1.652449	0
0.378231	1.651706	0
0.381392	1.650984	0
0.384553	1.650283	0
0.387714	1.649600	0
0.390876	1.648936	0
0.394037	1.648290	0
0.397199	1.647661	0
0.400361	1.647049	0
0.403523	1.646453	0
0.406685	1.645872	0
0.409847	1.645306	0
0.413010	1.644755	0
0.416172	1.644217	0
0.419335	1.643693	0
0.422497	1.643182	0
0.425660	1.642684	0
0.428823	1.642197	0
0.431986	1.641722	0
0.435149	1.641259	0
0.438312	1.640806	0
0.441475	1.640365	0
0.444638	1.639933	0
0.447802	1.639511	0
0.450965	1.639099	0
0.454129	1.638697	0
0.457292	1.638303	0
0.460456	1.637918	0
0.463620	1.637542	0
0.466784	1.637174	0
0.469947	1.636814	0
0.473111	1.636462	0
0.476275	1.636117	0
0.479439	1.635780	0
0.482603	1.635450	0
0.485767	1.635126	0
0.488931	1.634810	0
0.492095	1.634500	0
0.495259	1.634196	0
0.498423	1.633899	0
0.501587	1.633607	0
0.504752	1.633322	0
0.507916	1.633042	0
0.511080	1.632767	0
0.514244	1.632498	0
0.517408	1.632235	0
0.520572	1.631976	0
0.523736	1.631722	0
0.526901	1.631474	0
0.530065	1.631230	0
0.533229	1.630990	0
0.536393	1.630755	0
0.539557	1.630525	0
0.542721	1.630298	0
0.545885	1.630076	0
0.549049	1.629858	0
0.552213	1.629644	0
0.555376	1.629434	0
0.558540	1.629227	0
0.561704	1.629024	0
0.564868	1.628825	0
0.568031	1.628629	0
0.571195	1.628437	0
0.574358	1.628248	0
0.577522	1.628062	0
0.580685	1.627880	0
0.583848	1.627700	0
0.587012	1.627524	0
0.590175	1.627350	0
0.593338	1.627180	0
0.596501	1.627012	0
0.599663	1.626847	0
0.602826	1.626685	0
0.605989	1.626526	0
0.609151	1.626369	0
0.612314	1.626215	0
0.615476	1.626063	0
0.618638	1.625913	0
0.621800	1.625766	0
0.624962	1.625621	0
0.628124	1.625479	0
0.631286	1.625339	0
0.634447	1.625201	0
0.637609	1.625065	0
0.640770	1.624931	0
0.643931	1.624799	0
0.647092	1.624670	0
0.650253	1.624542	0
0.653414	1.624416	0
0.656574	1.624292	0
0.659734	1.624170	0
0.662895	1.624050	0
0.666055	1.623931	0
0.669214	1.623815	0
0.672374	1.623700	0
0.675534	1.623586	0
0.678693	1.623475	0
0.681852	1.623365	0
0.685011	1.623256	0
0.688170	1.623149	0
0.691328	1.623044	0
0.694487	1.622940	0
0.697645	1.622837	0
0.700803	1.622736	0
0.703960	1.622637	0
0.707118	1.622538	0
0.710275	1.622441	0
0.713432	1.622346	0
0.716589	1.622252	0
0.719745	1.622159	0
0.722902	1.622067	0
0.726058	1.621976	0
0.729214	1.621887	0
0.732369	1.621799	0
0.735525	1.621712	0
0.738680	1.621627	0
0.741835	1.621542	0
0.744989	1.621459	0
0.748144	1.621376	0
0.751298	1.621295	0
0.754451	1.621215	0
0.757605	1.621135	0
0.760758	1.621057	0
0.763911	1.620980	0
0.767064	1.620904	0
0.770216	1.620829	0
0.773368	1.620754	0
0.776520	1.620681	0
0.779672	1.620608	0
0.782823	1.620537	0
0.785974	1.620466	0
0.789124	1.620396	0
0.792275	1.620327	0
0.795425	1.620259	0
0.798574	1.620192	0
0.801724	1.620126	0
0.804873	1.620060	0
0.808021	1.619995	0
0.811170	1.619931	0
0.814318	1.619868	0
0.817465	1.619805	0
0.820613	1.619744	0
0.823760	1.619683	0
0.826906	1.619622	0
0.830052	1.619563	0
0.833198	1.619504	0
0.836344	1.619445	0
0.839489	1.619388	0
0.842634	1.619331	0
0.845778	1.619275	0
0.848922	1.619219	0
0.852066	1.619164	0
0.855209	1.619110	0
0.858352	1.619056	0
0.861495	1.619003	0
0.864637	1.618950	0
0.867778	1.618899	0
0.870920	1.618847	0
0.874061	1.618796	0
0.877201	1.618746	0
0.880341	1.618697	0
0.883481	1.618647	0
0.886620	1.618599	0
0.889759	1.618551	0
0.892897	1.618503	0
0.896035	1.618456	0
0.899173	1.618410	0
0.902310	1.618364	0
0.905446	1.618318	0
0.908583	1.618273	0
0.911718	1.618229	0
0.914854	1.618185	0
0.917988	1.618141	0
0.921123	1.618098	0
0.924257	1.618055	0
0.927390	1.618013	0
0.930523	1.617971	0
0.933656	1.617930	0
0.936788	1.617889	0
0.939919	1.617848	0
0.943050	1.617808	0
0.946181	1.617769	0
0.949311	1.617729	0
0.952441	1.617690	0
0.955570	1.617652	0
0.958698	1.617614	0
0.961826	1.617576	0
0.964954	1.617539	0
0.968081	1.617502	0
0.971207	1.617465	0
0.974333	1.617429	0
0.977459	1.617393	0
0.980584	1.617357	0
0.983708	1.617322	0
0.986832	1.617288	0
0.989956	1.617253	0
0.993078	1.617219	0
0.996201	1.617185	0
0.999322	1.617152	0
1.014711	1.616991	0
1.021442	1.616923	0
1.028176	1.616857	0
1.034912	1.616791	0
1.041651	1.616727	0
1.048392	1.616665	0
1.055136	1.616603	0
1.061883	1.616542	0
1.068631	1.616483	0
1.075383	1.616425	0
1.082137	1.616368	0
1.088893	1.616312	0
1.095652	1.616257	0
1.102414	1.616203	0
1.109177	1.616150	0
1.115944	1.616097	0
1.122713	1.616046	0
1.129485	1.615996	0
1.136259	1.615947	0
1.143035	1.615898	0
1.149814	1.615851	0
1.156596	1.615804	0
1.163380	1.615758	0
1.170167	1.615712	0
1.176956	1.615668	0
1.183748	1.615624	0
1.190542	1.615581	0
1.197339	1.615539	0
1.204138	1.615498	0
1.210940	1.615457	0
1.217744	1.615417	0
1.224551	1.615377	0
1.231360	1.615338	0
1.238172	1.615300	0
1.244987	1.615262	0
1.251804	1.615225	0
1.258623	1.615189	0
1.265445	1.615153	0
1.272270	1.615118	0
1.279097	1.615083	0
1.285926	1.615049	0
1.292758	1.615015	0
1.299593	1.614982	0
1.306430	1.614950	0
1.313269	1.614918	0
1.320112	1.614886	0
1.326956	1.614855	0
1.333803	1.614824	0
1.340653	1.614794	0
1.347505	1.614764	0
1.354360	1.614735	0
1.361217	1.614706	0
1.368077	1.614678	0
1.374939	1.614650	0
1.381804	1.614622	0
1.388672	1.614595	0
1.395542	1.614568	0
1.402414	1.614542	0
1.409289	1.614516	0
1.416166	1.614490	0
1.423046	1.614465	0
1.429929	1.614440	0
1.436814	1.614415	0
1.443701	1.614391	0
1.450591	1.614367	0
1.457484	1.614343	0
1.464379	1.614320	0
1.471276	1.614297	0
1.478177	1.614275	0
1.485079	1.614252	0
1.491984	1.614230	0
1.498892	1.614208	0
1.505802	1.614187	0
1.512715	1.614166	0
1.519630	1.614145	0
1.526548	1.614125	0
1.533468	1.614104	0
1.540391	1.614084	0
1.547317	1.614064	0
1.554244	1.614045	0
1.561175	1.614026	0
1.568108	1.614007	0
1.575043	1.613988	0
1.581981	1.613969	0
1.588922	1.613951	0
1.595865	1.613933	0
1.602810	1.613915	0
1.609758	1.613898	0
1.616709	1.613880	0
1.623662	1.613863	0
1.630617	1.613846	0
1.637575	1.613829	0
1.644536	1.613813	0
1.651499	1.613797	0
1.658465	1.613780	0
1.665433	1.613765	0
1.672404	1.613749	0
1.679377	1.613733	0
1.686353	1.613718	0
