Material: glass / isuzu / IEB470
Optical constants. Data kindly provided by Koichiro Ikeda, ISUZU GLASS LTD. Nov 2024. See also Isuzu Glass Products
Comments: Blue filter (IEB, IVB series).
wavelength (um)	n	k
0.200	4.87057	7.11E-05
0.205	-9.55866	7.51E-05
0.210	7.67923	7.83E-05
0.215	1.56425	9.76E-05
0.220	1.57014	1.00E-04
0.225	1.54909	1.04E-04
0.230	1.65305	1.12E-04
0.235	1.62782	1.17E-04
0.240	1.63590	1.25E-04
0.245	1.60077	1.30E-04
0.250	1.60231	1.34E-04
0.255	1.58416	1.43E-04
0.260	1.61005	1.48E-04
0.265	1.58357	1.56E-04
0.270	1.57520	1.59E-04
0.275	1.57527	1.62E-04
0.280	1.57779	1.69E-04
0.285	1.58209	1.84E-04
0.290	1.58416	1.87E-04
0.295	1.57594	1.83E-04
0.300	1.57639	1.94E-04
0.305	1.56589	1.97E-04
0.310	1.56126	1.92E-04
0.315	1.56798	2.03E-04
0.320	1.56223	2.07E-04
0.325	1.56761	1.88E-04
0.330	1.55120	1.55E-04
0.335	1.56006	1.19E-04
0.340	1.55451	8.74E-05
0.345	1.55609	6.59E-05
0.350	1.55609	4.98E-05
0.355	1.55135	3.83E-05
0.360	1.55323	2.96E-05
0.365	1.54879	2.32E-05
0.370	1.55195	1.84E-05
0.375	1.54600	1.48E-05
0.380	1.54811	1.21E-05
0.385	1.54736	9.96E-06
0.390	1.54977	8.33E-06
0.395	1.54456	7.10E-06
0.400	1.54456	6.08E-06
0.405	1.54494	5.28E-06
0.410	1.54176	4.67E-06
0.415	1.54365	4.14E-06
0.420	1.53796	3.74E-06
0.425	1.54085	3.36E-06
0.430	1.53956	3.07E-06
0.435	1.54017	2.81E-06
0.440	1.53736	2.60E-06
0.445	1.53918	2.40E-06
0.450	1.53538	2.28E-06
0.455	1.53705	2.10E-06
0.460	1.53606	2.02E-06
0.465	1.53667	1.91E-06
0.470	1.53492	1.87E-06
0.475	1.53568	1.80E-06
0.480	1.53477	1.81E-06
0.485	1.53363	1.83E-06
0.490	1.53363	1.89E-06
0.495	1.53271	1.98E-06
0.500	1.53187	2.14E-06
0.505	1.53126	2.37E-06
0.510	1.53157	2.64E-06
0.515	1.53149	3.03E-06
0.520	1.53058	3.52E-06
0.525	1.52928	4.14E-06
0.530	1.52935	4.87E-06
0.535	1.52935	5.78E-06
0.540	1.52943	6.85E-06
0.545	1.52958	8.11E-06
0.550	1.52951	9.62E-06
0.555	1.52859	1.13E-05
0.560	1.52859	1.33E-05
0.565	1.52851	1.55E-05
0.570	1.52775	1.80E-05
0.575	1.52813	2.07E-05
0.580	1.52767	2.38E-05
0.585	1.52652	2.72E-05
0.590	1.52668	3.09E-05
0.595	1.52721	3.48E-05
0.600	1.52652	3.92E-05
0.605	1.52683	4.38E-05
0.610	1.52652	4.87E-05
0.615	1.52614	5.40E-05
0.620	1.52622	5.96E-05
0.625	1.52507	6.56E-05
0.630	1.52622	7.19E-05
0.635	1.52545	7.85E-05
0.640	1.52499	8.54E-05
0.645	1.52407	9.26E-05
0.650	1.52461	1.00E-04
0.655	1.52507	1.08E-04
0.660	1.52476	1.16E-04
0.665	1.52476	1.24E-04
0.670	1.52254	1.33E-04
0.675	1.52392	1.41E-04
0.680	1.52246	1.50E-04
0.685	1.52261	1.59E-04
0.690	1.52231	1.68E-04
0.695	1.52292	1.77E-04
0.700	1.52223	1.86E-04
0.705	1.52223	1.95E-04
0.710	1.52138	2.04E-04
0.715	1.52269	2.13E-04
0.720	1.52215	2.22E-04
0.725	1.52192	2.31E-04
0.730	1.52392	2.40E-04
0.735	1.52185	2.48E-04
0.740	1.52215	2.57E-04
0.745	1.52261	2.65E-04
0.750	1.52261	2.73E-04
0.755	1.52215	2.81E-04
0.760	1.52392	2.88E-04
0.765	1.52131	2.96E-04
0.770	1.52192	3.03E-04
0.775	1.52269	3.09E-04
0.780	1.52323	3.15E-04
0.785	1.52292	3.22E-04
0.790	1.52192	3.27E-04
0.795	1.52154	3.33E-04
0.800	1.52277	3.37E-04
0.805	1.52399	3.42E-04
0.810	1.52277	3.46E-04
0.815	1.52092	3.50E-04
0.820	1.52100	3.54E-04
0.825	1.52223	3.57E-04
0.830	1.51900	3.61E-04
0.835	1.52292	3.64E-04
0.840	1.51815	3.65E-04
0.845	1.51715	3.63E-04
0.850	1.51838	4.04E-04
0.855	1.51792	5.52E-04
0.860	1.51908	5.08E-04
0.865	1.51460	5.95E-04
0.870	1.51969	4.64E-04
0.875	1.51792	5.65E-04
0.880	1.51700	5.02E-04
0.885	1.52023	5.50E-04
0.890	1.52054	4.57E-04
0.895	1.51877	4.63E-04
0.900	1.51900	5.06E-04
0.905	1.52023	4.45E-04
0.910	1.52069	4.47E-04
0.915	1.52154	4.67E-04
0.920	1.52338	4.43E-04
0.925	1.52015	4.25E-04
0.930	1.52161	4.03E-04
0.935	1.52023	4.15E-04
0.940	1.52192	4.03E-04
0.945	1.52046	3.89E-04
0.950	1.52138	3.86E-04
0.955	1.52077	3.76E-04
0.960	1.51969	3.77E-04
0.965	1.52046	3.65E-04
0.970	1.51931	3.59E-04
0.975	1.51815	3.59E-04
0.980	1.51931	3.46E-04
0.985	1.51962	3.48E-04
0.990	1.51923	3.39E-04
0.995	1.51761	3.31E-04
1.000	1.51900	3.35E-04
1.005	1.51938	3.26E-04
1.010	1.51815	3.24E-04
1.015	1.51777	3.19E-04
1.020	1.51769	3.14E-04
1.025	1.51738	3.10E-04
1.030	1.51838	3.08E-04
1.035	1.51738	3.01E-04
1.040	1.51769	2.98E-04
1.045	1.51800	2.93E-04
1.050	1.51700	2.90E-04
1.055	1.51831	2.86E-04
1.060	1.51630	2.83E-04
1.065	1.51761	2.80E-04
1.070	1.51653	2.76E-04
1.075	1.51615	2.73E-04
1.080	1.51769	2.70E-04
1.085	1.51730	2.66E-04
1.090	1.51661	2.63E-04
1.095	1.51846	2.59E-04
1.100	1.51723	2.56E-04
1.105	1.51661	2.53E-04
1.110	1.51692	2.50E-04
1.115	1.51815	2.47E-04
1.120	1.51676	2.44E-04
1.125	1.51622	2.40E-04
1.130	1.51622	2.37E-04
1.135	1.51630	2.34E-04
1.140	1.51638	2.30E-04
1.145	1.51630	2.28E-04
1.150	1.51553	2.24E-04
1.155	1.51545	2.22E-04
1.160	1.51700	2.19E-04
1.165	1.51522	2.16E-04
1.170	1.51568	2.13E-04
1.175	1.51545	2.10E-04
1.180	1.51491	2.08E-04
1.185	1.51491	2.05E-04
1.190	1.51599	2.02E-04
1.195	1.51676	1.99E-04
1.200	1.51491	1.96E-04
1.205	1.51538	1.93E-04
1.210	1.51545	1.90E-04
1.215	1.51514	1.88E-04
1.220	1.51646	1.85E-04
1.225	1.51522	1.83E-04
1.230	1.51522	1.80E-04
1.235	1.51530	1.77E-04
1.240	1.51460	1.74E-04
1.245	1.51484	1.72E-04
1.250	1.51491	1.69E-04
1.255	1.51538	1.67E-04
1.260	1.51476	1.64E-04
1.265	1.51437	1.62E-04
1.270	1.51399	1.59E-04
1.275	1.51383	1.57E-04
1.280	1.51522	1.54E-04
1.285	1.51460	1.52E-04
1.290	1.51252	1.50E-04
1.295	1.51391	1.47E-04
1.300	1.51429	1.45E-04
1.305	1.51406	1.43E-04
1.310	1.51406	1.41E-04
1.315	1.51375	1.38E-04
1.320	1.51437	1.36E-04
1.325	1.51306	1.34E-04
1.330	1.51375	1.32E-04
1.335	1.51399	1.30E-04
1.340	1.51368	1.28E-04
1.345	1.51406	1.26E-04
1.350	1.51275	1.24E-04
1.355	1.51314	1.22E-04
1.360	1.51298	1.20E-04
1.365	1.51344	1.18E-04
1.370	1.51244	1.16E-04
1.375	1.51329	1.14E-04
1.380	1.51375	1.12E-04
1.385	1.51174	1.11E-04
1.390	1.51344	1.09E-04
1.395	1.51321	1.07E-04
1.400	1.51151	1.05E-04
1.405	1.51329	1.04E-04
1.410	1.51267	1.02E-04
1.415	1.51197	1.00E-04
1.420	1.51244	9.87E-05
1.425	1.51205	9.71E-05
1.430	1.51228	9.56E-05
1.435	1.51151	9.39E-05
1.440	1.51058	9.25E-05
1.445	1.51190	9.09E-05
1.450	1.51167	8.94E-05
1.455	1.51213	8.80E-05
1.460	1.51221	8.66E-05
1.465	1.51151	8.52E-05
1.470	1.51213	8.38E-05
1.475	1.51136	8.23E-05
1.480	1.51105	8.11E-05
1.485	1.51167	7.98E-05
1.490	1.51174	7.84E-05
1.495	1.51019	7.71E-05
1.500	1.51151	7.59E-05
1.505	1.51128	7.47E-05
1.510	1.51050	7.35E-05
1.515	1.51066	7.22E-05
1.520	1.51128	7.10E-05
1.525	1.51120	7.00E-05
1.530	1.51027	6.88E-05
1.535	1.51136	6.76E-05
1.540	1.51182	6.66E-05
1.545	1.51074	6.55E-05
1.550	1.51213	6.44E-05
1.555	1.51050	6.34E-05
1.560	1.51012	6.24E-05
1.565	1.50973	6.15E-05
1.570	1.50872	6.04E-05
1.575	1.51058	5.94E-05
1.580	1.50856	5.85E-05
1.585	1.51019	5.76E-05
1.590	1.50988	5.66E-05
1.595	1.51019	5.57E-05
1.600	1.51027	5.49E-05
1.605	1.51012	5.39E-05
1.610	1.50988	5.31E-05
1.615	1.51043	5.23E-05
1.620	1.50934	5.14E-05
1.625	1.51027	5.07E-05
1.630	1.51027	4.99E-05
1.635	1.50919	4.91E-05
1.640	1.50981	4.83E-05
1.645	1.51043	4.75E-05
1.650	1.50988	4.68E-05
1.655	1.50981	4.60E-05
1.660	1.50841	4.54E-05
1.665	1.50957	4.47E-05
1.670	1.50973	4.40E-05
1.675	1.50841	4.34E-05
1.680	1.50942	4.27E-05
1.685	1.50895	4.20E-05
1.690	1.50973	4.14E-05
1.695	1.50981	4.08E-05
1.700	1.50973	4.01E-05
1.705	1.50818	3.96E-05
1.710	1.50934	3.90E-05
1.715	1.50973	3.84E-05
1.720	1.50748	3.78E-05
1.725	1.50926	3.73E-05
1.730	1.50880	3.67E-05
1.735	1.50888	3.62E-05
1.740	1.50911	3.56E-05
1.745	1.50849	3.51E-05
1.750	1.50748	3.47E-05
1.755	1.50794	3.42E-05
1.760	1.50841	3.36E-05
1.765	1.50895	3.31E-05
1.770	1.50740	3.27E-05
1.775	1.50864	3.22E-05
1.780	1.50825	3.18E-05
1.785	1.50957	3.13E-05
1.790	1.50616	3.10E-05
1.795	1.50849	3.04E-05
1.800	1.50903	2.99E-05
1.805	1.50802	2.96E-05
1.810	1.50802	2.92E-05
1.815	1.50794	2.87E-05
1.820	1.50631	2.85E-05
1.825	1.50701	2.81E-05
1.830	1.50787	2.77E-05
1.835	1.50600	2.73E-05
1.840	1.50748	2.68E-05
1.845	1.50569	2.66E-05
1.850	1.50608	2.61E-05
1.855	1.50748	2.59E-05
1.860	1.50841	2.54E-05
1.865	1.50895	2.51E-05
1.870	1.50538	2.49E-05
1.875	1.50701	2.45E-05
1.880	1.50616	2.42E-05
1.885	1.50631	2.39E-05
1.890	1.50771	2.35E-05
1.895	1.50585	2.32E-05
1.900	1.50639	2.30E-05
1.905	1.50701	2.27E-05
1.910	1.50592	2.24E-05
1.915	1.50406	2.22E-05
1.920	1.50335	2.20E-05
1.925	1.49984	2.17E-05
1.930	1.50187	2.15E-05
1.935	1.50507	2.12E-05
1.940	1.49875	2.11E-05
1.945	1.50335	2.07E-05
1.950	1.49953	2.05E-05
1.955	1.50499	2.01E-05
1.960	1.50320	2.00E-05
1.965	1.50926	1.95E-05
1.970	1.50359	1.95E-05
1.975	1.50374	1.92E-05
1.980	1.49922	1.92E-05
1.985	1.50382	1.89E-05
1.990	1.50180	1.86E-05
1.995	1.50094	1.85E-05
2.000	1.50195	1.83E-05
