Material: glass / isuzu / IEC501
Optical constants. Data kindly provided by Koichiro Ikeda, ISUZU GLASS LTD. Nov 2024. See also Isuzu Glass Products
Comments: Blue filter for color compensation (IEC series). Glass type: P2O5-Al2O3.
Specs: {"nd": 1.526, "Vd": 47.8, "density": 2630, "thermal_expansion": [{"temperature_range": "373 573", "value": 8e-06}], "transformation_temperature": 818, "durability": 1, "hardness": [{"type": "Knoop", "value": "5.29e9"}]}
wavelength (um)	n	k
0.300	1.51087	2.39E-04
0.304	1.50715	2.41E-04
0.308	1.50707	2.33E-04
0.312	1.50706	2.20E-04
0.316	1.50691	1.73E-04
0.320	1.50601	1.36E-04
0.324	1.50562	1.07E-04
0.328	1.50497	8.53E-05
0.332	1.50512	6.85E-05
0.336	1.50264	5.61E-05
0.340	1.50579	4.62E-05
0.344	1.50561	3.91E-05
0.348	1.50636	3.39E-05
0.352	1.50409	2.97E-05
0.356	1.50461	2.65E-05
0.360	1.50442	2.41E-05
0.364	1.50347	2.22E-05
0.368	1.50297	2.06E-05
0.372	1.50367	1.93E-05
0.376	1.50305	1.81E-05
0.380	1.50214	1.72E-05
0.384	1.50333	1.64E-05
0.388	1.50258	1.56E-05
0.392	1.50276	1.49E-05
0.396	1.50376	1.43E-05
0.400	1.50308	1.36E-05
0.404	1.50234	1.31E-05
0.408	1.50211	1.26E-05
0.412	1.50185	1.20E-05
0.416	1.50249	1.16E-05
0.420	1.50227	1.11E-05
0.424	1.50206	1.06E-05
0.428	1.50245	1.02E-05
0.432	1.50189	9.76E-06
0.436	1.50230	9.41E-06
0.440	1.50217	9.02E-06
0.444	1.50203	8.64E-06
0.448	1.50248	8.30E-06
0.452	1.50241	7.96E-06
0.456	1.50245	7.67E-06
0.460	1.50289	7.33E-06
0.464	1.50244	7.05E-06
0.468	1.50269	6.77E-06
0.472	1.50285	6.50E-06
0.476	1.50222	6.27E-06
0.480	1.50199	6.01E-06
0.484	1.50254	5.81E-06
0.488	1.50277	5.63E-06
0.492	1.50191	5.46E-06
0.496	1.50211	5.32E-06
0.500	1.50205	5.23E-06
0.504	1.50252	5.12E-06
0.508	1.50217	5.08E-06
0.512	1.50223	5.07E-06
0.516	1.50269	5.10E-06
0.520	1.50268	5.19E-06
0.524	1.50236	5.35E-06
0.528	1.50271	5.58E-06
0.532	1.50287	5.92E-06
0.536	1.50248	6.34E-06
0.540	1.50238	6.87E-06
0.544	1.50264	7.54E-06
0.548	1.50264	8.30E-06
0.552	1.50273	9.24E-06
0.556	1.50306	1.04E-05
0.560	1.50320	1.17E-05
0.564	1.50407	1.32E-05
0.568	1.50357	1.49E-05
0.572	1.50366	1.69E-05
0.576	1.50328	1.92E-05
0.580	1.50291	2.17E-05
0.584	1.50332	2.45E-05
0.588	1.50368	2.76E-05
0.592	1.50354	3.10E-05
0.596	1.50412	3.47E-05
0.600	1.50377	3.88E-05
0.604	1.50394	4.32E-05
0.608	1.50418	4.80E-05
0.612	1.50413	5.31E-05
0.616	1.50436	5.86E-05
0.620	1.50407	6.44E-05
0.624	1.50465	7.07E-05
0.628	1.50449	7.73E-05
0.632	1.50439	8.42E-05
0.636	1.50470	9.15E-05
0.640	1.50430	9.93E-05
0.644	1.50453	1.07E-04
0.648	1.50449	1.16E-04
0.652	1.50535	1.24E-04
0.656	1.50519	1.34E-04
0.660	1.50488	1.43E-04
0.664	1.50436	1.53E-04
0.668	1.50349	1.64E-04
0.672	1.50385	1.74E-04
0.676	1.50358	1.85E-04
0.680	1.50310	1.97E-04
0.684	1.50391	2.08E-04
0.688	1.50304	2.20E-04
0.692	1.50368	2.32E-04
0.696	1.50429	2.44E-04
0.700	1.50408	2.57E-04
0.704	1.50457	2.70E-04
0.708	1.50395	2.83E-04
0.712	1.50402	2.96E-04
0.716	1.50485	3.09E-04
0.720	1.50462	3.22E-04
0.724	1.50509	3.36E-04
0.728	1.50494	3.49E-04
0.732	1.50483	3.63E-04
0.736	1.50483	3.76E-04
0.740	1.50549	3.90E-04
0.744	1.50473	4.03E-04
0.748	1.50510	4.15E-04
0.752	1.50502	4.30E-04
0.756	1.50609	4.43E-04
0.760	1.50612	4.55E-04
0.764	1.50559	4.67E-04
0.768	1.50590	4.80E-04
0.772	1.50572	4.95E-04
0.776	1.50669	5.06E-04
0.780	1.50581	5.15E-04
0.784	1.50585	5.29E-04
0.788	1.50641	5.39E-04
0.792	1.50761	5.47E-04
0.796	1.50575	5.63E-04
0.800	1.50618	5.72E-04
0.804	1.50583	5.83E-04
0.808	1.50624	5.95E-04
0.812	1.50716	6.02E-04
0.816	1.50524	6.00E-04
0.820	1.50654	6.15E-04
0.824	1.50653	6.29E-04
0.828	1.50624	6.38E-04
0.832	1.50575	6.44E-04
0.836	1.50664	6.36E-04
0.840	1.50615	6.68E-04
0.844	1.50659	9.12E-04
0.848	1.50721	9.18E-04
0.852	1.51012	9.22E-04
0.856	1.50073	9.24E-04
0.860	1.50492	9.30E-04
0.864	1.50348	9.34E-04
0.868	1.50426	9.39E-04
0.872	1.50557	9.41E-04
0.876	1.50758	9.47E-04
0.880	1.50533	9.50E-04
0.884	1.50904	9.56E-04
0.888	1.50722	9.62E-04
0.892	1.50829	6.70E-04
0.896	1.51071	9.67E-04
0.900	1.51839	6.79E-04
0.904	1.51038	5.77E-04
0.908	1.50972	9.82E-04
0.912	1.50871	6.57E-04
0.916	1.50581	9.89E-04
0.920	1.51051	9.93E-04
0.924	1.50943	8.12E-04
0.928	1.50892	1.00E-03
0.932	1.50193	6.12E-04
0.936	1.50305	6.98E-04
0.940	1.50578	8.15E-04
0.944	1.50690	1.02E-03
0.948	1.50718	1.02E-03
0.952	1.50774	1.03E-03
0.956	1.50886	7.21E-04
0.960	1.51102	1.04E-03
0.964	1.50806	1.04E-03
0.968	1.50897	1.05E-03
0.972	1.50688	1.05E-03
0.976	1.51408	8.51E-04
0.980	1.50472	9.28E-04
0.984	1.50609	1.06E-03
0.988	1.50719	6.94E-04
0.992	1.51122	6.50E-04
0.996	1.50865	1.08E-03
1.000	1.51178	7.94E-04
1.004	1.51146	6.67E-04
1.008	1.50830	1.09E-03
1.012	1.50672	8.23E-04
1.016	1.50679	1.10E-03
1.020	1.50607	8.68E-04
1.024	1.51011	6.97E-04
1.028	1.50722	6.99E-04
1.032	1.50598	6.73E-04
1.036	1.50296	6.78E-04
1.040	1.50829	6.72E-04
1.044	1.51143	6.87E-04
1.048	1.50455	7.39E-04
1.052	1.50379	6.58E-04
1.056	1.50755	7.28E-04
1.060	1.51039	6.53E-04
1.064	1.50664	7.13E-04
1.068	1.50732	6.69E-04
1.072	1.50095	6.91E-04
1.076	1.51240	6.88E-04
1.080	1.50999	6.89E-04
1.084	1.50425	6.52E-04
1.088	1.50404	6.29E-04
1.092	1.50738	6.64E-04
1.096	1.51174	6.61E-04
1.100	1.51136	6.35E-04
1.104	1.50585	6.08E-04
1.108	1.50546	6.72E-04
1.112	1.50674	6.37E-04
1.116	1.50487	6.34E-04
1.120	1.50510	6.23E-04
1.124	1.50739	5.99E-04
1.128	1.50824	6.22E-04
1.132	1.50474	6.36E-04
1.136	1.50536	6.20E-04
1.140	1.50891	6.01E-04
1.144	1.51044	5.98E-04
1.148	1.50502	6.11E-04
1.152	1.50710	5.86E-04
1.156	1.50740	6.03E-04
1.160	1.51119	5.76E-04
1.164	1.51026	5.73E-04
1.168	1.50597	5.64E-04
1.172	1.50796	5.77E-04
1.176	1.50814	5.66E-04
1.180	1.51177	5.63E-04
1.184	1.50518	5.47E-04
1.188	1.50756	5.42E-04
1.192	1.50808	5.42E-04
1.196	1.50475	5.38E-04
1.200	1.50832	5.35E-04
1.204	1.50671	5.23E-04
1.208	1.50773	5.25E-04
1.212	1.50676	5.22E-04
1.216	1.50823	5.15E-04
1.220	1.50678	5.11E-04
1.224	1.50502	5.09E-04
1.228	1.50880	5.03E-04
1.232	1.50656	4.97E-04
1.236	1.50571	4.92E-04
1.240	1.50791	4.92E-04
1.244	1.51018	4.88E-04
1.248	1.50933	4.81E-04
1.252	1.50632	4.77E-04
1.256	1.50633	4.73E-04
1.260	1.51205	4.64E-04
1.264	1.50582	4.63E-04
1.268	1.51001	4.63E-04
1.272	1.51081	4.57E-04
1.276	1.50840	4.50E-04
1.280	1.50426	4.46E-04
1.284	1.51124	4.42E-04
1.288	1.50876	4.36E-04
1.292	1.50414	4.32E-04
1.296	1.50414	4.29E-04
1.300	1.50450	4.25E-04
1.304	1.50353	4.20E-04
1.308	1.50828	4.14E-04
1.312	1.50920	4.10E-04
1.316	1.50262	4.06E-04
1.320	1.50756	4.01E-04
1.324	1.51087	3.97E-04
1.328	1.50610	3.93E-04
1.332	1.50815	3.90E-04
1.336	1.50499	3.86E-04
1.340	1.50725	3.82E-04
1.344	1.50662	3.78E-04
1.348	1.50380	3.73E-04
1.352	1.50706	3.70E-04
1.356	1.51065	3.66E-04
1.360	1.50490	3.61E-04
1.364	1.50538	3.57E-04
1.368	1.50936	3.52E-04
1.372	1.50801	3.49E-04
1.376	1.51222	3.46E-04
1.380	1.50317	3.41E-04
1.384	1.50960	3.37E-04
1.388	1.50953	3.34E-04
1.392	1.50322	3.30E-04
1.396	1.50850	3.26E-04
1.400	1.50386	3.23E-04
1.404	1.50514	3.19E-04
1.408	1.50632	3.16E-04
1.412	1.50823	3.11E-04
1.416	1.51058	3.08E-04
1.420	1.50444	3.05E-04
1.424	1.50962	3.01E-04
1.428	1.50960	2.98E-04
1.432	1.50765	2.94E-04
1.436	1.50727	2.91E-04
1.440	1.51096	2.87E-04
1.444	1.50263	2.85E-04
1.448	1.50777	2.81E-04
1.452	1.50818	2.78E-04
1.456	1.50555	2.74E-04
1.460	1.50530	2.71E-04
1.464	1.50774	2.68E-04
1.468	1.50530	2.65E-04
1.472	1.50589	2.62E-04
1.476	1.50739	2.59E-04
1.480	1.50398	2.56E-04
1.484	1.50554	2.53E-04
1.488	1.50560	2.50E-04
1.492	1.50646	2.47E-04
1.496	1.50430	2.43E-04
1.500	1.50912	2.41E-04
