Material: glass / isuzu / IHU250H
Optical constants. Data kindly provided by Koichiro Ikeda, ISUZU GLASS LTD. Nov 2024. See also Isuzu Glass Products
Comments: UV transmitting filter (IHU series). Glass type: SiO2-B2O3.
Specs: {"nd": 1.504, "Vd": 61.2, "density": 2290, "thermal_expansion": [{"temperature_range": "373 573", "value": "7.9-06"}], "transformation_temperature": 740, "durability": 3, "hardness": [{"type": "Vickers", "value": "4.32e9"}]}
wavelength (um)	n	k
0.200	1.660	7.89E-05
0.205	1.643	8.06E-05
0.210	1.636	8.15E-05
0.215	1.628	8.15E-05
0.220	1.617	8.20E-05
0.225	1.609	6.48E-05
0.230	1.603	3.98E-05
0.235	1.592	2.69E-05
0.240	1.588	1.95E-05
0.245	1.580	1.34E-05
0.250	1.581	8.54E-06
0.255	1.570	5.16E-06
0.260	1.570	3.24E-06
0.265	1.566	2.22E-06
0.270	1.566	1.64E-06
0.275	1.560	1.35E-06
0.280	1.559	1.05E-06
0.285	1.554	9.14E-07
0.290	1.554	7.26E-07
0.295	1.548	6.86E-07
0.300	1.549	4.93E-07
0.305	1.547	4.48E-07
0.310	1.541	3.66E-07
0.315	1.544	2.65E-07
0.320	1.538	2.02E-07
0.325	1.538	1.38E-07
0.330	1.533	1.58E-07
0.335	1.534	1.16E-07
0.340	1.532	6.90E-08
0.345	1.529	3.58E-08
0.350	1.527	3.63E-08
0.355	1.525	2.26E-08
0.360	1.527	2.72E-09
0.365	1.525	5.69E-09
0.370	1.525	1.03E-08
0.375	1.520	4.09E-08
0.380	1.520	2.46E-08
0.385	1.518	3.22E-08
0.390	1.516	4.52E-08
0.395	1.516	3.52E-08
0.400	1.517	3.26E-08
0.405	1.514	1.82E-08
0.410	1.515	1.41E-08
0.415	1.513	2.95E-08
0.420	1.512	3.47E-08
0.425	1.513	3.92E-08
0.430	1.510	3.95E-08
0.435	1.511	1.91E-08
0.440	1.509	3.34E-08
0.445	1.508	4.22E-08
0.450	1.508	3.66E-08
0.455	1.509	1.59E-08
0.460	1.507	3.64E-08
0.465	1.508	3.86E-08
0.470	1.507	4.23E-08
0.475	1.506	6.62E-08
0.480	1.504	2.92E-08
0.485	1.504	6.89E-08
0.490	1.503	6.26E-08
0.495	1.504	4.92E-08
0.500	1.503	6.14E-08
0.505	1.502	4.39E-08
0.510	1.501	5.74E-08
0.515	1.501	7.04E-08
0.520	1.501	6.29E-08
0.525	1.500	6.34E-08
0.530	1.499	5.15E-08
0.535	1.500	4.63E-08
0.540	1.499	6.69E-08
0.545	1.499	6.04E-08
0.550	1.498	7.76E-08
0.555	1.498	6.54E-08
0.560	1.498	6.55E-08
0.565	1.497	7.71E-08
0.570	1.497	8.15E-08
0.575	1.496	9.08E-08
0.580	1.496	6.55E-08
0.585	1.496	7.45E-08
0.590	1.496	8.49E-08
0.595	1.496	8.04E-08
0.600	1.495	9.37E-08
0.605	1.495	8.68E-08
0.610	1.494	8.22E-08
0.615	1.494	1.01E-07
0.620	1.494	9.30E-08
0.625	1.494	1.06E-07
0.630	1.494	1.00E-07
0.635	1.494	1.00E-07
0.640	1.493	1.14E-07
0.645	1.494	1.26E-07
0.650	1.493	1.09E-07
0.655	1.493	9.73E-08
0.660	1.492	7.58E-08
0.665	1.491	1.18E-07
0.670	1.491	1.17E-07
0.675	1.490	1.40E-07
0.680	1.490	1.34E-07
0.685	1.490	1.26E-07
0.690	1.491	1.19E-07
0.695	1.490	1.21E-07
0.700	1.489	1.47E-07
0.705	1.489	1.49E-07
0.710	1.490	1.47E-07
0.715	1.488	1.50E-07
0.720	1.488	1.44E-07
0.725	1.489	1.29E-07
0.730	1.489	1.14E-07
0.735	1.489	1.64E-07
0.740	1.490	1.27E-07
0.745	1.489	1.88E-07
0.750	1.488	1.62E-07
0.755	1.489	1.61E-07
0.760	1.489	1.78E-07
0.765	1.488	1.92E-07
0.770	1.488	1.90E-07
0.775	1.488	1.56E-07
0.780	1.487	1.25E-07
0.785	1.489	1.66E-07
0.790	1.488	1.51E-07
0.795	1.487	1.31E-07
0.800	1.487	1.38E-07
0.805	1.487	1.15E-07
0.810	1.486	1.30E-07
0.815	1.488	1.59E-07
0.820	1.487	1.58E-07
0.825	1.486	1.21E-07
0.830	1.486	1.98E-07
0.835	1.486	1.48E-07
0.840	1.485	2.33E-07
0.845	1.486	2.18E-07
0.850	1.484	2.35E-07
0.855	1.486	1.69E-07
0.860	1.486	1.69E-07
0.865	1.486	1.76E-07
0.870	1.488	1.18E-07
0.875	1.487	1.69E-07
0.880	1.486	1.38E-07
0.885	1.487	1.47E-07
0.890	1.487	1.50E-07
0.895	1.483	2.32E-07
0.900	1.485	1.11E-07
0.905	1.484	2.07E-07
0.910	1.485	1.76E-07
0.915	1.482	2.40E-07
0.920	1.483	2.10E-07
0.925	1.486	1.41E-07
0.930	1.481	2.19E-07
0.935	1.482	2.42E-07
0.940	1.484	2.04E-07
0.945	1.484	2.01E-07
0.950	1.482	2.29E-07
0.955	1.487	1.73E-07
0.960	1.486	1.95E-07
0.965	1.481	2.44E-07
0.970	1.483	2.85E-07
0.975	1.481	2.39E-07
0.980	1.480	2.94E-07
0.985	1.482	2.09E-07
0.990	1.479	2.98E-07
0.995	1.483	2.67E-07
1.000	1.484	2.13E-07
1.005	1.481	2.87E-07
1.010	1.481	2.66E-07
1.015	1.481	2.43E-07
1.020	1.480	2.68E-07
1.025	1.480	2.70E-07
1.030	1.482	2.03E-07
1.035	1.481	2.11E-07
1.040	1.478	2.68E-07
1.045	1.479	2.72E-07
1.050	1.482	2.43E-07
1.055	1.478	3.35E-07
1.060	1.481	2.39E-07
1.065	1.481	2.58E-07
1.070	1.478	2.75E-07
1.075	1.479	2.86E-07
1.080	1.480	2.43E-07
1.085	1.479	2.98E-07
1.090	1.480	2.84E-07
1.095	1.480	2.17E-07
1.100	1.479	2.75E-07
1.105	1.477	3.06E-07
1.110	1.479	2.67E-07
1.115	1.478	3.38E-07
1.120	1.478	3.13E-07
1.125	1.481	2.69E-07
1.130	1.477	3.25E-07
1.135	1.478	2.58E-07
1.140	1.477	3.43E-07
1.145	1.476	2.99E-07
1.150	1.477	3.26E-07
1.155	1.475	3.93E-07
1.160	1.477	2.95E-07
1.165	1.480	2.42E-07
1.170	1.479	2.35E-07
1.175	1.479	2.36E-07
1.180	1.477	3.32E-07
1.185	1.481	2.57E-07
1.190	1.479	3.21E-07
1.195	1.478	2.62E-07
1.200	1.477	4.08E-07
1.205	1.480	2.84E-07
1.210	1.476	3.64E-07
1.215	1.476	3.48E-07
1.220	1.477	3.43E-07
1.225	1.475	3.95E-07
1.230	1.476	3.91E-07
1.235	1.476	3.42E-07
1.240	1.473	4.32E-07
1.245	1.477	3.08E-07
1.250	1.476	3.46E-07
1.255	1.477	3.93E-07
1.260	1.472	4.51E-07
1.265	1.473	4.44E-07
1.270	1.476	3.87E-07
1.275	1.478	2.73E-07
1.280	1.475	4.02E-07
1.285	1.477	3.77E-07
1.290	1.475	4.12E-07
1.295	1.475	4.13E-07
1.300	1.478	3.79E-07
1.305	1.474	4.15E-07
1.310	1.475	4.00E-07
1.315	1.474	4.06E-07
1.320	1.472	5.02E-07
1.325	1.473	4.55E-07
1.330	1.475	4.25E-07
1.335	1.475	4.03E-07
1.340	1.471	5.14E-07
1.345	1.474	3.87E-07
1.350	1.474	4.26E-07
1.355	1.473	4.61E-07
1.360	1.474	4.59E-07
1.365	1.473	4.63E-07
1.370	1.476	3.38E-07
1.375	1.473	4.53E-07
1.380	1.471	5.36E-07
1.385	1.475	5.10E-07
1.390	1.471	6.17E-07
1.395	1.472	6.91E-07
1.400	1.473	8.08E-07
1.405	1.474	8.63E-07
1.410	1.474	8.70E-07
1.415	1.475	8.95E-07
1.420	1.470	1.02E-06
1.425	1.472	9.20E-07
1.430	1.472	9.26E-07
1.435	1.471	8.70E-07
1.440	1.473	7.93E-07
1.445	1.472	7.44E-07
1.450	1.472	7.43E-07
1.455	1.477	5.77E-07
1.460	1.475	6.26E-07
1.465	1.469	8.04E-07
1.470	1.474	6.00E-07
1.475	1.473	6.46E-07
1.480	1.472	6.42E-07
1.485	1.474	5.05E-07
1.490	1.470	6.42E-07
1.495	1.472	5.62E-07
1.500	1.469	6.14E-07
1.505	1.474	5.10E-07
1.510	1.470	5.70E-07
1.515	1.472	5.32E-07
1.520	1.470	6.49E-07
1.525	1.469	5.80E-07
1.530	1.474	4.92E-07
1.535	1.472	5.39E-07
1.540	1.468	6.39E-07
1.545	1.471	5.33E-07
1.550	1.474	5.01E-07
1.555	1.469	6.14E-07
1.560	1.470	5.95E-07
1.565	1.470	6.01E-07
1.570	1.467	6.60E-07
1.575	1.471	6.05E-07
1.580	1.470	6.26E-07
1.585	1.470	5.86E-07
1.590	1.470	5.93E-07
1.595	1.473	5.31E-07
1.600	1.472	5.68E-07
1.605	1.470	6.09E-07
1.610	1.471	5.92E-07
1.615	1.469	6.34E-07
1.620	1.470	6.12E-07
1.625	1.472	5.39E-07
1.630	1.471	5.69E-07
1.635	1.468	6.88E-07
1.640	1.470	6.17E-07
1.645	1.468	6.72E-07
1.650	1.466	7.38E-07
1.655	1.470	6.43E-07
1.660	1.469	6.78E-07
1.665	1.469	6.87E-07
1.670	1.468	6.89E-07
1.675	1.469	6.59E-07
1.680	1.470	6.57E-07
1.685	1.466	7.61E-07
1.690	1.468	6.99E-07
1.695	1.469	6.56E-07
1.700	1.469	6.82E-07
1.705	1.470	7.04E-07
1.710	1.465	8.21E-07
1.715	1.469	7.20E-07
1.720	1.467	7.46E-07
1.725	1.467	7.40E-07
1.730	1.465	8.35E-07
1.735	1.470	7.15E-07
1.740	1.465	8.59E-07
1.745	1.467	7.80E-07
1.750	1.467	7.97E-07
1.755	1.466	8.22E-07
1.760	1.465	8.91E-07
1.765	1.471	6.81E-07
1.770	1.467	8.12E-07
1.775	1.465	8.50E-07
1.780	1.466	8.87E-07
1.785	1.465	8.52E-07
1.790	1.466	7.88E-07
1.795	1.466	8.06E-07
1.800	1.465	8.53E-07
1.805	1.469	7.73E-07
1.810	1.465	8.47E-07
1.815	1.467	7.84E-07
1.820	1.466	8.14E-07
1.825	1.466	8.25E-07
1.830	1.464	9.04E-07
1.835	1.464	9.24E-07
1.840	1.465	8.86E-07
1.845	1.466	8.69E-07
1.850	1.465	9.17E-07
1.855	1.465	9.87E-07
1.860	1.465	9.35E-07
1.865	1.463	1.00E-06
1.870	1.465	8.98E-07
1.875	1.465	9.34E-07
1.880	1.464	9.35E-07
1.885	1.465	9.53E-07
1.890	1.467	8.80E-07
1.895	1.462	1.05E-06
1.900	1.464	1.04E-06
1.905	1.462	1.09E-06
1.910	1.464	9.80E-07
1.915	1.463	1.09E-06
1.920	1.465	1.03E-06
1.925	1.465	1.10E-06
1.930	1.463	1.20E-06
1.935	1.463	1.20E-06
1.940	1.460	1.35E-06
1.945	1.463	1.25E-06
1.950	1.463	1.30E-06
1.955	1.464	1.30E-06
1.960	1.464	1.31E-06
1.965	1.464	1.40E-06
1.970	1.460	1.58E-06
1.975	1.464	1.46E-06
1.980	1.463	1.61E-06
1.985	1.463	1.57E-06
1.990	1.461	1.71E-06
1.995	1.461	1.74E-06
2.000	1.461	1.74E-06
