Material: glass / isuzu / IHU310
Optical constants. Data kindly provided by Koichiro Ikeda, ISUZU GLASS LTD. Nov 2024. See also Isuzu Glass Products
Comments: UV transmitting filter (IHU series). Glass type: SiO2-CaO-Na2O.
Specs: {"nd": 1.523, "Vd": 58.2, "density": 2550, "thermal_expansion": [{"temperature_range": "373 573", "value": "9.4-06"}], "transformation_temperature": 806, "durability": 3, "hardness": [{"type": "Knoop", "value": "5.32e9"}]}
wavelength (um)	n	k
0.200	2.19642	6.31E-05
0.205	2.19846	6.81E-05
0.210	1.76432	7.43E-05
0.215	1.51360	7.84E-05
0.220	1.64309	7.96E-05
0.225	1.59997	8.16E-05
0.230	1.59682	8.47E-05
0.235	1.58460	8.91E-05
0.240	1.60618	9.34E-05
0.245	1.57460	9.81E-05
0.250	1.59461	1.02E-04
0.255	1.57460	1.06E-04
0.260	1.58512	1.09E-04
0.265	1.58644	1.13E-04
0.270	1.57156	1.15E-04
0.275	1.56418	1.15E-04
0.280	1.57141	1.02E-04
0.285	1.58164	7.44E-05
0.290	1.55067	3.98E-05
0.295	1.55113	2.85E-05
0.300	1.56865	1.96E-05
0.305	1.56507	1.35E-05
0.310	1.56089	9.08E-06
0.315	1.54622	6.20E-06
0.320	1.55999	4.15E-06
0.325	1.55248	2.79E-06
0.330	1.55158	1.85E-06
0.335	1.54562	1.26E-06
0.340	1.54123	8.46E-07
0.345	1.54471	5.67E-07
0.350	1.54411	3.88E-07
0.355	1.53903	2.83E-07
0.360	1.54403	1.93E-07
0.365	1.53287	1.80E-07
0.370	1.54199	1.32E-07
0.375	1.53698	1.44E-07
0.380	1.53728	1.39E-07
0.385	1.53317	1.22E-07
0.390	1.53332	9.06E-08
0.395	1.53576	5.86E-08
0.400	1.53165	5.99E-08
0.405	1.53317	5.06E-08
0.410	1.53012	5.66E-08
0.415	1.52897	6.73E-08
0.420	1.52882	6.74E-08
0.425	1.52844	6.36E-08
0.430	1.52798	6.71E-08
0.435	1.52767	6.26E-08
0.440	1.52775	6.53E-08
0.445	1.52553	6.60E-08
0.450	1.52645	5.49E-08
0.455	1.52576	5.25E-08
0.460	1.52561	5.69E-08
0.465	1.52453	5.02E-08
0.470	1.52538	4.42E-08
0.475	1.52376	4.68E-08
0.480	1.52138	5.24E-08
0.485	1.52261	5.14E-08
0.490	1.52161	5.07E-08
0.495	1.52131	5.13E-08
0.500	1.52085	4.67E-08
0.505	1.52100	4.76E-08
0.510	1.52077	4.54E-08
0.515	1.52054	3.96E-08
0.520	1.52023	4.52E-08
0.525	1.51946	4.69E-08
0.530	1.51977	4.21E-08
0.535	1.51854	4.80E-08
0.540	1.51885	4.73E-08
0.545	1.51923	4.29E-08
0.550	1.51838	4.15E-08
0.555	1.51823	4.35E-08
0.560	1.51831	4.20E-08
0.565	1.51815	4.41E-08
0.570	1.51730	4.49E-08
0.575	1.51700	4.42E-08
0.580	1.51730	4.64E-08
0.585	1.51638	5.22E-08
0.590	1.51638	5.52E-08
0.595	1.51622	5.22E-08
0.600	1.51607	5.46E-08
0.605	1.51568	5.78E-08
0.610	1.51538	5.95E-08
0.615	1.51545	5.53E-08
0.620	1.51576	5.86E-08
0.625	1.51545	5.85E-08
0.630	1.51499	6.43E-08
0.635	1.51460	7.19E-08
0.640	1.51507	6.30E-08
0.645	1.51476	5.88E-08
0.650	1.51460	6.46E-08
0.655	1.51453	6.71E-08
0.660	1.51453	6.27E-08
0.665	1.51429	6.57E-08
0.670	1.51445	7.17E-08
0.675	1.51460	6.21E-08
0.680	1.51453	6.27E-08
0.685	1.51344	6.66E-08
0.690	1.51375	6.84E-08
0.695	1.51391	5.63E-08
0.700	1.51314	6.51E-08
0.705	1.51329	7.04E-08
0.710	1.51321	6.20E-08
0.715	1.51352	6.74E-08
0.720	1.51399	6.66E-08
0.725	1.51352	6.44E-08
0.730	1.51406	5.97E-08
0.735	1.51283	6.69E-08
0.740	1.51267	7.38E-08
0.745	1.51290	7.19E-08
0.750	1.51275	7.61E-08
0.755	1.51383	6.01E-08
0.760	1.51244	8.67E-08
0.765	1.51306	6.44E-08
0.770	1.51290	7.04E-08
0.775	1.51236	7.11E-08
0.780	1.51406	7.75E-08
0.785	1.51290	6.28E-08
0.790	1.51321	7.27E-08
0.795	1.51236	9.39E-08
0.800	1.51283	7.07E-08
0.805	1.51445	6.34E-08
0.810	1.51306	8.37E-08
0.815	1.51422	7.17E-08
0.820	1.51429	8.16E-08
0.825	1.51344	6.60E-08
0.830	1.51081	1.09E-07
0.835	1.51298	8.04E-08
0.840	1.50996	1.20E-07
0.845	1.51112	1.14E-07
0.850	1.51437	6.46E-08
0.855	1.51151	9.30E-08
0.860	1.51730	5.61E-08
0.865	1.51514	6.82E-08
0.870	1.51630	5.58E-08
0.875	1.51368	7.70E-08
0.880	1.51244	8.67E-08
0.885	1.51352	5.21E-08
0.890	1.51607	5.69E-08
0.895	1.51460	6.69E-08
0.900	1.51707	7.68E-08
0.905	1.51484	6.75E-08
0.910	1.51514	6.78E-08
0.915	1.51306	8.47E-08
0.920	1.51414	5.92E-08
0.925	1.51128	1.18E-07
0.930	1.51406	8.52E-08
0.935	1.51460	7.62E-08
0.940	1.51174	9.92E-08
0.945	1.51267	1.03E-07
0.950	1.51228	1.07E-07
0.955	1.51329	9.76E-08
0.960	1.51097	1.05E-07
0.965	1.51414	5.42E-08
0.970	1.51244	9.56E-08
0.975	1.51128	1.22E-07
0.980	1.51167	9.94E-08
0.985	1.51097	1.19E-07
0.990	1.51205	1.05E-07
0.995	1.51337	9.40E-08
1.000	1.51151	1.16E-07
1.005	1.51089	1.19E-07
1.010	1.51128	8.71E-08
1.015	1.50996	1.13E-07
1.020	1.51213	1.38E-07
1.025	1.51089	1.13E-07
1.030	1.50903	1.19E-07
1.035	1.51027	1.40E-07
1.040	1.50942	1.49E-07
1.045	1.50880	1.38E-07
1.050	1.51074	1.26E-07
1.055	1.51035	1.01E-07
1.060	1.50841	1.69E-07
1.065	1.51043	9.20E-08
1.070	1.51058	1.83E-07
1.075	1.50934	1.26E-07
1.080	1.50957	1.47E-07
1.085	1.50888	1.52E-07
1.090	1.50849	1.31E-07
1.095	1.50794	1.41E-07
1.100	1.50957	1.41E-07
1.105	1.50709	1.33E-07
1.110	1.51043	1.26E-07
1.115	1.50996	1.40E-07
1.120	1.50981	1.37E-07
1.125	1.50942	1.44E-07
1.130	1.50988	1.40E-07
1.135	1.50895	1.37E-07
1.140	1.50864	1.69E-07
1.145	1.50911	1.40E-07
1.150	1.50763	1.46E-07
1.155	1.50880	1.37E-07
1.160	1.50981	1.28E-07
1.165	1.50856	1.09E-07
1.170	1.50833	1.50E-07
1.175	1.50810	1.41E-07
1.180	1.50895	1.11E-07
1.185	1.50973	1.33E-07
1.190	1.50678	1.65E-07
1.195	1.50872	1.21E-07
1.200	1.50810	1.57E-07
1.205	1.50903	1.38E-07
1.210	1.50794	1.46E-07
1.215	1.50872	1.31E-07
1.220	1.50825	1.63E-07
1.225	1.50810	1.45E-07
1.230	1.50825	1.35E-07
1.235	1.50592	1.44E-07
1.240	1.50756	1.42E-07
1.245	1.50802	1.41E-07
1.250	1.50872	1.54E-07
1.255	1.50756	1.57E-07
1.260	1.50888	1.24E-07
1.265	1.50732	1.68E-07
1.270	1.50670	1.73E-07
1.275	1.50802	1.42E-07
1.280	1.50748	1.52E-07
1.285	1.50748	1.61E-07
1.290	1.50864	1.34E-07
1.295	1.50810	1.44E-07
1.300	1.50825	1.38E-07
1.305	1.50771	1.63E-07
1.310	1.50569	1.69E-07
1.315	1.50678	1.57E-07
1.320	1.50616	1.69E-07
1.325	1.50818	1.23E-07
1.330	1.50919	1.15E-07
1.335	1.50616	2.26E-07
1.340	1.50732	9.25E-08
1.345	1.50779	2.50E-07
1.350	1.50717	1.05E-07
1.355	1.50655	1.62E-07
1.360	1.50476	1.49E-07
1.365	1.50647	1.88E-07
1.370	1.50530	1.77E-07
1.375	1.50623	1.58E-07
1.380	1.50833	1.58E-07
1.385	1.50530	1.69E-07
1.390	1.50616	2.22E-07
1.395	1.50499	1.83E-07
1.400	1.50538	2.55E-07
1.405	1.50468	2.49E-07
1.410	1.50437	2.96E-07
1.415	1.50468	2.03E-07
1.420	1.50413	2.40E-07
1.425	1.50413	2.58E-07
1.430	1.50585	2.29E-07
1.435	1.50507	2.27E-07
1.440	1.50515	2.23E-07
1.445	1.50359	2.31E-07
1.450	1.50359	2.24E-07
1.455	1.50180	2.23E-07
1.460	1.50273	2.11E-07
1.465	1.50406	1.83E-07
1.470	1.50265	2.05E-07
1.475	1.50413	1.94E-07
1.480	1.50359	1.56E-07
1.485	1.50187	2.48E-07
1.490	1.50491	1.63E-07
1.495	1.50390	1.90E-07
1.500	1.50320	1.91E-07
1.505	1.50258	2.20E-07
1.510	1.50148	1.94E-07
1.515	1.50187	2.23E-07
1.520	1.50250	2.06E-07
1.525	1.50195	2.13E-07
1.530	1.50281	2.53E-07
1.535	1.50211	1.98E-07
1.540	1.50250	1.97E-07
1.545	1.50117	2.12E-07
1.550	1.50102	2.35E-07
1.555	1.50312	1.84E-07
1.560	1.50187	2.27E-07
1.565	1.50102	2.42E-07
1.570	1.50078	2.41E-07
1.575	1.50125	2.39E-07
1.580	1.50141	2.48E-07
1.585	1.50023	2.35E-07
1.590	1.50102	2.66E-07
1.595	1.50156	2.46E-07
1.600	1.50039	2.52E-07
1.605	1.49992	2.66E-07
1.610	1.49977	2.51E-07
1.615	1.49914	2.97E-07
1.620	1.49836	3.15E-07
1.625	1.49984	2.64E-07
1.630	1.49718	3.19E-07
1.635	1.49859	3.19E-07
1.640	1.49851	2.83E-07
1.645	1.49820	3.23E-07
1.650	1.49836	2.88E-07
1.655	1.49859	3.42E-07
1.660	1.49867	3.47E-07
1.665	1.49844	3.50E-07
1.670	1.49773	3.21E-07
1.675	1.49750	3.85E-07
1.680	1.49726	3.73E-07
1.685	1.49742	3.78E-07
1.690	1.49750	3.83E-07
1.695	1.49828	3.80E-07
1.700	1.49734	3.92E-07
1.705	1.49640	4.19E-07
1.710	1.49570	4.53E-07
1.715	1.49601	4.58E-07
1.720	1.49711	4.50E-07
1.725	1.49507	4.95E-07
1.730	1.49687	4.61E-07
1.735	1.49577	4.98E-07
1.740	1.49656	4.95E-07
1.745	1.49546	5.38E-07
1.750	1.49483	5.42E-07
1.755	1.49507	5.56E-07
1.760	1.49421	5.61E-07
1.765	1.49530	5.58E-07
1.770	1.49475	5.87E-07
1.775	1.49381	6.26E-07
1.780	1.49256	6.22E-07
1.785	1.49311	6.85E-07
1.790	1.49436	6.42E-07
1.795	1.49342	6.83E-07
1.800	1.49366	6.56E-07
1.805	1.49397	7.16E-07
1.810	1.49295	7.18E-07
1.815	1.49248	7.59E-07
1.820	1.49106	7.86E-07
1.825	1.49138	7.61E-07
1.830	1.49051	8.28E-07
1.835	1.48925	8.39E-07
1.840	1.48696	9.04E-07
1.845	1.48578	9.22E-07
1.850	1.48980	8.95E-07
1.855	1.49027	8.83E-07
1.860	1.48996	9.01E-07
1.865	1.49035	9.00E-07
1.870	1.49177	9.04E-07
1.875	1.49271	8.68E-07
1.880	1.49499	8.77E-07
1.885	1.49585	8.48E-07
1.890	1.49656	8.63E-07
1.895	1.49664	8.81E-07
1.900	1.49491	8.92E-07
1.905	1.49350	9.76E-07
1.910	1.49256	9.88E-07
1.915	1.49201	1.01E-06
1.920	1.49342	9.97E-07
1.925	1.49232	1.05E-06
1.930	1.49366	1.04E-06
1.935	1.49295	1.09E-06
1.940	1.49114	1.09E-06
1.945	1.49208	1.08E-06
1.950	1.49169	1.16E-06
1.955	1.49106	1.18E-06
1.960	1.49271	1.17E-06
1.965	1.49075	1.23E-06
1.970	1.49295	1.23E-06
1.975	1.49279	1.22E-06
1.980	1.49373	1.25E-06
1.985	1.49012	1.32E-06
1.990	1.49263	1.27E-06
1.995	1.49287	1.20E-06
2.000	1.49193	1.31E-06
