Material: glass / isuzu / ISK171
Optical constants. Data kindly provided by Koichiro Ikeda, ISUZU GLASS LTD. Nov 2024. See also Isuzu Glass Products
Comments: Heat absorbing filter (ISK series). Glass type: P2O5-Al2O3.
Specs: {"nd": 1.529, "Vd": 58.5, "density": 2630, "thermal_expansion": [{"temperature_range": "373 573", "value": 5.8e-06}], "transformation_temperature": 875, "durability": 1, "hardness": [{"type": "Knoop", "value": "5.07e9"}]}
wavelength (um)	n	k
0.200	1.67199	6.83E-05
0.205	1.64868	6.28E-05
0.210	1.64847	7.08E-05
0.215	1.63497	7.86E-05
0.220	1.62623	8.04E-05
0.225	1.62095	7.99E-05
0.230	1.61398	8.74E-05
0.235	1.60837	9.08E-05
0.240	1.60669	9.27E-05
0.245	1.60224	9.31E-05
0.250	1.59652	1.01E-04
0.255	1.59263	1.06E-04
0.260	1.59042	1.05E-04
0.265	1.58762	1.07E-04
0.270	1.58201	1.12E-04
0.275	1.58201	1.11E-04
0.280	1.57816	1.05E-04
0.285	1.57505	8.76E-05
0.290	1.57260	7.14E-05
0.295	1.57119	5.65E-05
0.300	1.56888	4.40E-05
0.305	1.56470	3.41E-05
0.310	1.56343	2.59E-05
0.315	1.56283	1.95E-05
0.320	1.55804	1.46E-05
0.325	1.55616	1.10E-05
0.330	1.55564	8.25E-06
0.335	1.55496	6.26E-06
0.340	1.55541	4.88E-06
0.345	1.55594	3.88E-06
0.350	1.55399	3.00E-06
0.355	1.55323	2.32E-06
0.360	1.55188	1.88E-06
0.365	1.55105	1.62E-06
0.370	1.54902	1.46E-06
0.375	1.54932	1.36E-06
0.380	1.54788	1.35E-06
0.385	1.54796	1.43E-06
0.390	1.54615	1.66E-06
0.395	1.54562	1.96E-06
0.400	1.54562	2.23E-06
0.405	1.54373	2.43E-06
0.410	1.54350	2.59E-06
0.415	1.54199	2.76E-06
0.420	1.54199	2.93E-06
0.425	1.54070	2.95E-06
0.430	1.54039	2.85E-06
0.435	1.53971	2.73E-06
0.440	1.53888	2.66E-06
0.445	1.53941	2.62E-06
0.450	1.53812	2.68E-06
0.455	1.53819	2.85E-06
0.460	1.53781	2.92E-06
0.465	1.53743	2.88E-06
0.470	1.53675	2.77E-06
0.475	1.53614	2.68E-06
0.480	1.53546	2.62E-06
0.485	1.53469	2.56E-06
0.490	1.53439	2.50E-06
0.495	1.53378	2.53E-06
0.500	1.53348	2.59E-06
0.505	1.53340	2.62E-06
0.510	1.53279	2.76E-06
0.515	1.53241	2.93E-06
0.520	1.53241	3.07E-06
0.525	1.53195	3.19E-06
0.530	1.53149	3.24E-06
0.535	1.53134	3.25E-06
0.540	1.53119	3.13E-06
0.545	1.53035	2.97E-06
0.550	1.53042	2.85E-06
0.555	1.53027	2.83E-06
0.560	1.52997	2.88E-06
0.565	1.52974	2.98E-06
0.570	1.52943	3.12E-06
0.575	1.52874	3.30E-06
0.580	1.52890	3.49E-06
0.585	1.52890	3.74E-06
0.590	1.52867	4.06E-06
0.595	1.52828	4.41E-06
0.600	1.52805	4.82E-06
0.605	1.52775	5.28E-06
0.610	1.52775	5.80E-06
0.615	1.52744	6.42E-06
0.620	1.52706	7.07E-06
0.625	1.52721	7.83E-06
0.630	1.52714	8.64E-06
0.635	1.52691	9.52E-06
0.640	1.52660	1.05E-05
0.645	1.52637	1.15E-05
0.650	1.52629	1.25E-05
0.655	1.52645	1.37E-05
0.660	1.52622	1.49E-05
0.665	1.52530	1.63E-05
0.670	1.52469	1.77E-05
0.675	1.52415	1.92E-05
0.680	1.52407	2.08E-05
0.685	1.52384	2.27E-05
0.690	1.52353	2.46E-05
0.695	1.52376	2.67E-05
0.700	1.52361	2.90E-05
0.705	1.52361	3.13E-05
0.710	1.52399	3.38E-05
0.715	1.52376	3.64E-05
0.720	1.52346	3.91E-05
0.725	1.52323	4.19E-05
0.730	1.52315	4.48E-05
0.735	1.52346	4.80E-05
0.740	1.52369	5.12E-05
0.745	1.52269	5.47E-05
0.750	1.52315	5.83E-05
0.755	1.52300	6.21E-05
0.760	1.52254	6.61E-05
0.765	1.52261	7.02E-05
0.770	1.52223	7.46E-05
0.775	1.52277	7.91E-05
0.780	1.52246	8.38E-05
0.785	1.52330	8.86E-05
0.790	1.52315	9.37E-05
0.795	1.52269	9.89E-05
0.800	1.52346	1.04E-04
0.805	1.52215	1.10E-04
0.810	1.52277	1.16E-04
0.815	1.52131	1.22E-04
0.820	1.52254	1.28E-04
0.825	1.52231	1.34E-04
0.830	1.52046	1.40E-04
0.835	1.52092	1.47E-04
0.840	1.52108	1.53E-04
0.845	1.52185	1.59E-04
0.850	1.51236	1.70E-04
0.855	1.50109	1.84E-04
0.860	1.50141	1.91E-04
0.865	1.50655	2.00E-04
0.870	1.50421	2.14E-04
0.875	1.50577	2.29E-04
0.880	1.50748	2.35E-04
0.885	1.50437	2.70E-04
0.890	1.50499	3.14E-04
0.895	1.50585	3.53E-04
0.900	1.50600	4.13E-04
0.905	1.50686	3.40E-04
0.910	1.50880	3.10E-04
0.915	1.50623	2.72E-04
0.920	1.50701	2.67E-04
0.925	1.50639	2.70E-04
0.930	1.50655	2.60E-04
0.935	1.50592	2.60E-04
0.940	1.50732	2.59E-04
0.945	1.50406	2.55E-04
0.950	1.50483	2.56E-04
0.955	1.50483	2.58E-04
0.960	1.50592	2.58E-04
0.965	1.50437	2.62E-04
0.970	1.50639	2.61E-04
0.975	1.50515	2.66E-04
0.980	1.50460	2.64E-04
0.985	1.50818	2.66E-04
0.990	1.50561	2.76E-04
0.995	1.50452	2.73E-04
1.000	1.50693	2.75E-04
1.005	1.50522	2.67E-04
1.010	1.50468	2.77E-04
1.015	1.50655	2.79E-04
1.020	1.50678	2.75E-04
1.025	1.50748	2.79E-04
1.030	1.50585	2.71E-04
1.035	1.50662	2.72E-04
1.040	1.50483	2.76E-04
1.045	1.50445	2.80E-04
1.050	1.50608	2.83E-04
1.055	1.50585	2.81E-04
1.060	1.50468	2.85E-04
1.065	1.50328	2.82E-04
1.070	1.50569	2.87E-04
1.075	1.50499	2.96E-04
1.080	1.50608	2.87E-04
1.085	1.50390	2.95E-04
1.090	1.50717	2.94E-04
1.095	1.50343	2.93E-04
1.100	1.50335	2.90E-04
1.105	1.50499	2.97E-04
1.110	1.50631	2.98E-04
1.115	1.50374	2.93E-04
1.120	1.50592	3.02E-04
1.125	1.50561	3.11E-04
1.130	1.50374	3.01E-04
1.135	1.50312	3.03E-04
1.140	1.50631	3.10E-04
1.145	1.50265	3.08E-04
1.150	1.50351	3.10E-04
1.155	1.50273	3.04E-04
1.160	1.50180	3.12E-04
1.165	1.50647	3.11E-04
1.170	1.50273	3.12E-04
1.175	1.50429	3.16E-04
1.180	1.50047	3.16E-04
1.185	1.50382	3.20E-04
1.190	1.50507	3.18E-04
1.195	1.50398	3.21E-04
1.200	1.50265	3.15E-04
1.205	1.50460	3.21E-04
1.210	1.50304	3.18E-04
1.215	1.50468	3.38E-04
1.220	1.50273	3.19E-04
1.225	1.50437	3.24E-04
1.230	1.49961	3.27E-04
1.235	1.50195	3.27E-04
1.240	1.50180	3.30E-04
1.245	1.50289	3.34E-04
1.250	1.50195	3.38E-04
1.255	1.50195	3.37E-04
1.260	1.50382	3.33E-04
1.265	1.50258	3.39E-04
1.270	1.50211	3.40E-04
1.275	1.50320	3.45E-04
1.280	1.50289	3.44E-04
1.285	1.50320	3.45E-04
1.290	1.50242	3.41E-04
1.295	1.50273	3.49E-04
1.300	1.50164	3.51E-04
1.305	1.50141	3.45E-04
1.310	1.50250	3.52E-04
1.315	1.50258	3.53E-04
1.320	1.50156	3.47E-04
1.325	1.50133	3.50E-04
1.330	1.49992	3.56E-04
1.335	1.50047	3.56E-04
1.340	1.50180	3.56E-04
1.345	1.50039	3.73E-04
1.350	1.50164	3.64E-04
1.355	1.50125	3.72E-04
1.360	1.50219	3.68E-04
1.365	1.49992	3.68E-04
1.370	1.50055	3.66E-04
1.375	1.49953	3.71E-04
1.380	1.49750	3.72E-04
1.385	1.49898	3.69E-04
1.390	1.50023	3.69E-04
1.395	1.50070	3.70E-04
1.400	1.50078	3.61E-04
1.405	1.50164	3.87E-04
1.410	1.49984	3.70E-04
1.415	1.50148	3.80E-04
1.420	1.49945	3.68E-04
1.425	1.50125	3.89E-04
1.430	1.50070	3.78E-04
1.435	1.49961	3.74E-04
1.440	1.49922	3.93E-04
1.445	1.50023	3.85E-04
1.450	1.49867	3.90E-04
1.455	1.50156	3.79E-04
1.460	1.49961	3.88E-04
1.465	1.49937	3.97E-04
1.470	1.49953	3.87E-04
1.475	1.50008	3.93E-04
1.480	1.49914	4.00E-04
1.485	1.50062	3.95E-04
1.490	1.49984	3.98E-04
1.495	1.49734	4.11E-04
1.500	1.49992	4.01E-04
1.505	1.50008	3.99E-04
1.510	1.49906	4.13E-04
1.515	1.49914	4.03E-04
1.520	1.49992	4.04E-04
1.525	1.49898	4.20E-04
1.530	1.49640	4.23E-04
1.535	1.49914	4.08E-04
1.540	1.50148	4.12E-04
1.545	1.49687	4.12E-04
1.550	1.50047	4.05E-04
1.555	1.49977	4.14E-04
1.560	1.49711	4.15E-04
1.565	1.49867	4.22E-04
1.570	1.49883	4.22E-04
1.575	1.49914	4.16E-04
1.580	1.49898	4.29E-04
1.585	1.50008	4.30E-04
1.590	1.49734	4.30E-04
1.595	1.50023	4.38E-04
1.600	1.49640	4.28E-04
1.605	1.49758	4.27E-04
1.610	1.49977	4.31E-04
1.615	1.49632	4.37E-04
1.620	1.50031	4.41E-04
1.625	1.49789	4.34E-04
1.630	1.50047	4.42E-04
1.635	1.49977	4.33E-04
1.640	1.49742	4.45E-04
1.645	1.49703	4.49E-04
1.650	1.49851	4.56E-04
1.655	1.49695	4.48E-04
1.660	1.49742	4.47E-04
1.665	1.49703	4.44E-04
1.670	1.49546	4.51E-04
1.675	1.49671	4.53E-04
1.680	1.49664	4.56E-04
1.685	1.49726	4.73E-04
1.690	1.49977	4.65E-04
1.695	1.49444	4.57E-04
1.700	1.49632	4.56E-04
1.705	1.49507	4.74E-04
1.710	1.49546	4.67E-04
1.715	1.49679	4.60E-04
1.720	1.49562	4.54E-04
1.725	1.49624	4.63E-04
1.730	1.49515	4.78E-04
1.735	1.49475	4.62E-04
1.740	1.49342	4.84E-04
1.745	1.49609	4.72E-04
1.750	1.49789	4.90E-04
1.755	1.49562	4.80E-04
1.760	1.49475	4.87E-04
1.765	1.49483	4.97E-04
1.770	1.49499	4.79E-04
1.775	1.49460	4.95E-04
1.780	1.49601	4.80E-04
1.785	1.49679	4.82E-04
1.790	1.49311	4.90E-04
1.795	1.49153	4.82E-04
1.800	1.49381	5.06E-04
1.805	1.49695	4.94E-04
1.810	1.49334	4.96E-04
1.815	1.49413	4.95E-04
1.820	1.49538	4.97E-04
1.825	1.49405	4.97E-04
1.830	1.49499	5.08E-04
1.835	1.49483	5.16E-04
1.840	1.49342	5.10E-04
1.845	1.49067	5.03E-04
1.850	1.49318	5.25E-04
1.855	1.49475	5.07E-04
1.860	1.49240	5.13E-04
1.865	1.49381	5.14E-04
1.870	1.49216	5.01E-04
1.875	1.49193	5.18E-04
1.880	1.49358	5.05E-04
1.885	1.49287	5.24E-04
1.890	1.49326	5.20E-04
1.895	1.49224	5.19E-04
1.900	1.49358	5.16E-04
1.905	1.49177	5.15E-04
1.910	1.49342	5.15E-04
1.915	1.49130	5.31E-04
1.920	1.49082	5.33E-04
1.925	1.49405	5.23E-04
1.930	1.49232	5.34E-04
1.935	1.49216	5.12E-04
1.940	1.49106	5.20E-04
1.945	1.49224	5.29E-04
1.950	1.49185	5.27E-04
1.955	1.49271	5.28E-04
1.960	1.49248	5.45E-04
1.965	1.49051	5.49E-04
1.970	1.49405	5.26E-04
1.975	1.49216	5.41E-04
1.980	1.49067	5.44E-04
1.985	1.49185	5.42E-04
1.990	1.49130	5.32E-04
1.995	1.49271	5.34E-04
2.000	1.49153	5.33E-04
