Material: glass / isuzu / ISK167
Optical constants. Data kindly provided by Koichiro Ikeda, ISUZU GLASS LTD. Nov 2024. See also Isuzu Glass Products
Comments: Heat absorbing filter (ISK series). Glass type: P2O5-Al2O3.
Specs: {"nd": 1.52, "Vd": 74.3, "density": 2640, "thermal_expansion": [{"temperature_range": "373 573", "value": 6e-06}], "transformation_temperature": 882, "durability": 1, "hardness": [{"type": "Knoop", "value": "4.92e9"}]}
wavelength (um)	n	k
0.200	2.74016	5.52E-05
0.205	4.84439	6.02E-05
0.210	1.78501	6.98E-05
0.215	1.85238	9.10E-05
0.220	1.61805	8.57E-05
0.225	1.66610	8.13E-05
0.230	1.60231	8.16E-05
0.235	1.61906	8.60E-05
0.240	1.60633	8.79E-05
0.245	1.55481	9.78E-05
0.250	1.58489	9.75E-05
0.255	1.57824	9.94E-05
0.260	1.57765	1.01E-04
0.265	1.56336	1.06E-04
0.270	1.57698	9.78E-05
0.275	1.57304	7.97E-05
0.280	1.56962	6.58E-05
0.285	1.57081	5.32E-05
0.290	1.57312	4.25E-05
0.295	1.55639	3.33E-05
0.300	1.55894	2.57E-05
0.305	1.55601	1.95E-05
0.310	1.55466	1.47E-05
0.315	1.54388	1.10E-05
0.320	1.54758	8.13E-06
0.325	1.54024	6.03E-06
0.330	1.55271	4.48E-06
0.335	1.55195	3.36E-06
0.340	1.54130	2.69E-06
0.345	1.54350	2.14E-06
0.350	1.54509	1.65E-06
0.355	1.54168	1.28E-06
0.360	1.53720	1.06E-06
0.365	1.54282	8.96E-07
0.370	1.53698	8.41E-07
0.375	1.53834	8.02E-07
0.380	1.53728	7.98E-07
0.385	1.53546	8.63E-07
0.390	1.53591	1.01E-06
0.395	1.53561	1.22E-06
0.400	1.53530	1.39E-06
0.405	1.53271	1.53E-06
0.410	1.53370	1.63E-06
0.415	1.53248	1.73E-06
0.420	1.53119	1.85E-06
0.425	1.53233	1.85E-06
0.430	1.52913	1.80E-06
0.435	1.52928	1.72E-06
0.440	1.53020	1.67E-06
0.445	1.52890	1.65E-06
0.450	1.52851	1.68E-06
0.455	1.52890	1.78E-06
0.460	1.52874	1.83E-06
0.465	1.52920	1.80E-06
0.470	1.52606	1.74E-06
0.475	1.52660	1.68E-06
0.480	1.52645	1.64E-06
0.485	1.52553	1.60E-06
0.490	1.52538	1.56E-06
0.495	1.52476	1.59E-06
0.500	1.52423	1.63E-06
0.505	1.52530	1.65E-06
0.510	1.52315	1.75E-06
0.515	1.52430	1.84E-06
0.520	1.52269	1.95E-06
0.525	1.52192	2.03E-06
0.530	1.52261	2.06E-06
0.535	1.52208	2.09E-06
0.540	1.52131	2.03E-06
0.545	1.52200	1.93E-06
0.550	1.52231	1.88E-06
0.555	1.52215	1.88E-06
0.560	1.52131	1.91E-06
0.565	1.52115	1.98E-06
0.570	1.51985	2.07E-06
0.575	1.52108	2.17E-06
0.580	1.51985	2.31E-06
0.585	1.52069	2.47E-06
0.590	1.51969	2.69E-06
0.595	1.51977	2.91E-06
0.600	1.51992	3.19E-06
0.605	1.51931	3.49E-06
0.610	1.51915	3.84E-06
0.615	1.51923	4.23E-06
0.620	1.51831	4.67E-06
0.625	1.51885	5.14E-06
0.630	1.51877	5.67E-06
0.635	1.51869	6.26E-06
0.640	1.51915	6.87E-06
0.645	1.51861	7.56E-06
0.650	1.51831	8.28E-06
0.655	1.51815	9.06E-06
0.660	1.51777	9.88E-06
0.665	1.51746	1.08E-05
0.670	1.51746	1.17E-05
0.675	1.51622	1.27E-05
0.680	1.51653	1.38E-05
0.685	1.51630	1.49E-05
0.690	1.51692	1.62E-05
0.695	1.51622	1.76E-05
0.700	1.51545	1.90E-05
0.705	1.51607	2.06E-05
0.710	1.51638	2.21E-05
0.715	1.51607	2.38E-05
0.720	1.51615	2.56E-05
0.725	1.51584	2.74E-05
0.730	1.51545	2.93E-05
0.735	1.51484	3.13E-05
0.740	1.51538	3.34E-05
0.745	1.51514	3.56E-05
0.750	1.51538	3.79E-05
0.755	1.51630	4.03E-05
0.760	1.51375	4.29E-05
0.765	1.51584	4.56E-05
0.770	1.51684	4.83E-05
0.775	1.51669	5.12E-05
0.780	1.51468	5.43E-05
0.785	1.51576	5.74E-05
0.790	1.51476	6.07E-05
0.795	1.51607	6.40E-05
0.800	1.51491	6.75E-05
0.805	1.51676	7.10E-05
0.810	1.51422	7.48E-05
0.815	1.51391	7.86E-05
0.820	1.51484	8.25E-05
0.825	1.51692	8.65E-05
0.830	1.51607	9.07E-05
0.835	1.51514	9.49E-05
0.840	1.51406	9.92E-05
0.845	1.52269	1.03E-04
0.850	1.50996	1.09E-04
0.855	1.51599	1.15E-04
0.860	1.51375	1.21E-04
0.865	1.51213	1.26E-04
0.870	1.51383	1.32E-04
0.875	1.51630	1.37E-04
0.880	1.51375	1.42E-04
0.885	1.51228	1.48E-04
0.890	1.51228	1.54E-04
0.895	1.51445	1.60E-04
0.900	1.51453	1.66E-04
0.905	1.51445	1.73E-04
0.910	1.51406	1.77E-04
0.915	1.51429	1.86E-04
0.920	1.51391	1.91E-04
0.925	1.51607	1.99E-04
0.930	1.51360	2.04E-04
0.935	1.51468	2.12E-04
0.940	1.51383	2.22E-04
0.945	1.51391	2.29E-04
0.950	1.51368	2.37E-04
0.955	1.51414	2.48E-04
0.960	1.51414	2.51E-04
0.965	1.51545	2.76E-04
0.970	1.51283	2.85E-04
0.975	1.51453	3.07E-04
0.980	1.51368	3.13E-04
0.985	1.51375	3.39E-04
0.990	1.51166	3.20E-04
0.995	1.51298	3.22E-04
1.000	1.51259	3.25E-04
1.005	1.51221	3.15E-04
1.010	1.51081	3.13E-04
1.015	1.51267	3.04E-04
1.020	1.51298	3.14E-04
1.025	1.51190	2.92E-04
1.030	1.51275	2.98E-04
1.035	1.51112	2.90E-04
1.040	1.51267	2.95E-04
1.045	1.51205	2.89E-04
1.050	1.51019	2.89E-04
1.055	1.51321	2.93E-04
1.060	1.51050	2.85E-04
1.065	1.51221	2.96E-04
1.070	1.51159	2.91E-04
1.075	1.51089	3.03E-04
1.080	1.51074	2.95E-04
1.085	1.51120	3.05E-04
1.090	1.51097	2.96E-04
1.095	1.51105	3.12E-04
1.100	1.51105	3.05E-04
1.105	1.51105	3.22E-04
1.110	1.51074	3.08E-04
1.115	1.51058	3.06E-04
1.120	1.51074	3.02E-04
1.125	1.50996	3.09E-04
1.130	1.51066	3.07E-04
1.135	1.51043	3.11E-04
1.140	1.51012	3.03E-04
1.145	1.51066	3.18E-04
1.150	1.50919	3.04E-04
1.155	1.51136	3.14E-04
1.160	1.50903	3.14E-04
1.165	1.51012	3.17E-04
1.170	1.50856	3.15E-04
1.175	1.50988	3.22E-04
1.180	1.50887	3.19E-04
1.185	1.50973	3.27E-04
1.190	1.50911	3.18E-04
1.195	1.50934	3.26E-04
1.200	1.51012	3.21E-04
1.205	1.50996	3.21E-04
1.210	1.50973	3.22E-04
1.215	1.50895	3.29E-04
1.220	1.50950	3.26E-04
1.225	1.50942	3.28E-04
1.230	1.50887	3.41E-04
1.235	1.50965	3.45E-04
1.240	1.50903	3.39E-04
1.245	1.50996	3.35E-04
1.250	1.50841	3.48E-04
1.255	1.50779	3.45E-04
1.260	1.50818	3.38E-04
1.265	1.50763	3.39E-04
1.270	1.50849	3.44E-04
1.275	1.50818	3.53E-04
1.280	1.50779	3.45E-04
1.285	1.50903	3.40E-04
1.290	1.50856	3.43E-04
1.295	1.50794	3.55E-04
1.300	1.50825	3.46E-04
1.305	1.50849	3.74E-04
1.310	1.50833	3.58E-04
1.315	1.50794	3.57E-04
1.320	1.50693	3.54E-04
1.325	1.50748	3.59E-04
1.330	1.50693	3.66E-04
1.335	1.50864	3.55E-04
1.340	1.50662	3.56E-04
1.345	1.50934	3.64E-04
1.350	1.50802	3.81E-04
1.355	1.50724	3.83E-04
1.360	1.50670	3.79E-04
1.365	1.50616	3.90E-04
1.370	1.50530	3.75E-04
1.375	1.50553	3.82E-04
1.380	1.50647	3.78E-04
1.385	1.50515	3.75E-04
1.390	1.50647	3.85E-04
1.395	1.50585	3.80E-04
1.400	1.50748	3.81E-04
1.405	1.50600	3.79E-04
1.410	1.50678	3.94E-04
1.415	1.50686	3.89E-04
1.420	1.50445	3.95E-04
1.425	1.50592	3.94E-04
1.430	1.50592	4.27E-04
1.435	1.50515	4.00E-04
1.440	1.50577	4.11E-04
1.445	1.50553	4.07E-04
1.450	1.50515	4.10E-04
1.455	1.50553	4.20E-04
1.460	1.50522	4.16E-04
1.465	1.50515	4.05E-04
1.470	1.50491	4.30E-04
1.475	1.50499	4.29E-04
1.480	1.50343	4.25E-04
1.485	1.50445	4.16E-04
1.490	1.50515	4.37E-04
1.495	1.50538	4.33E-04
1.500	1.50367	4.32E-04
1.505	1.50530	4.35E-04
1.510	1.50437	4.51E-04
1.515	1.50585	4.39E-04
1.520	1.50491	4.84E-04
1.525	1.50421	4.65E-04
1.530	1.50538	4.60E-04
1.535	1.50406	5.07E-04
1.540	1.50452	4.77E-04
1.545	1.50499	5.22E-04
1.550	1.50374	4.87E-04
1.555	1.50444	5.03E-04
1.560	1.50499	5.00E-04
1.565	1.50468	5.35E-04
1.570	1.50359	7.14E-04
1.575	1.50328	5.29E-04
1.580	1.50390	5.96E-04
1.585	1.50429	5.46E-04
1.590	1.50406	5.71E-04
1.595	1.50406	5.10E-04
1.600	1.50406	5.28E-04
1.605	1.50398	5.22E-04
1.610	1.50398	5.17E-04
1.615	1.50296	4.83E-04
1.620	1.50281	4.82E-04
1.625	1.50335	4.92E-04
1.630	1.50406	4.92E-04
1.635	1.50335	4.74E-04
1.640	1.50250	4.57E-04
1.645	1.50351	4.44E-04
1.650	1.50382	4.61E-04
1.655	1.50335	4.49E-04
1.660	1.50219	4.42E-04
1.665	1.50312	4.43E-04
1.670	1.50242	4.47E-04
1.675	1.50312	4.40E-04
1.680	1.50250	4.30E-04
1.685	1.50203	4.37E-04
1.690	1.50211	4.36E-04
1.695	1.50187	4.29E-04
1.700	1.50242	4.25E-04
1.705	1.50265	4.21E-04
1.710	1.50273	4.25E-04
1.715	1.50180	4.25E-04
1.720	1.50219	4.22E-04
1.725	1.50195	4.24E-04
1.730	1.50133	4.18E-04
1.735	1.50226	4.25E-04
1.740	1.50219	4.18E-04
1.745	1.50125	4.14E-04
1.750	1.50109	4.16E-04
1.755	1.50094	4.18E-04
1.760	1.50187	4.14E-04
1.765	1.50094	4.17E-04
1.770	1.50117	4.11E-04
1.775	1.50156	4.16E-04
1.780	1.49984	4.19E-04
1.785	1.50219	4.21E-04
1.790	1.50023	4.19E-04
1.795	1.50086	4.20E-04
1.800	1.50039	4.21E-04
1.805	1.50047	4.15E-04
1.810	1.50070	4.21E-04
1.815	1.49977	4.26E-04
1.820	1.49844	4.25E-04
1.825	1.50195	4.29E-04
1.830	1.49937	4.22E-04
1.835	1.50055	4.22E-04
1.840	1.49797	4.30E-04
1.845	1.49851	4.33E-04
1.850	1.49859	4.39E-04
1.855	1.49851	4.32E-04
1.860	1.50211	4.35E-04
1.865	1.49805	4.37E-04
1.870	1.49930	4.39E-04
1.875	1.50133	4.43E-04
1.880	1.49945	4.41E-04
1.885	1.49805	4.47E-04
1.890	1.49773	4.46E-04
1.895	1.49922	4.52E-04
1.900	1.49906	4.52E-04
1.905	1.49703	4.62E-04
1.910	1.49687	4.51E-04
1.915	1.49828	4.60E-04
1.920	1.49977	4.57E-04
1.925	1.49789	4.63E-04
1.930	1.49836	4.69E-04
1.935	1.49475	4.71E-04
1.940	1.49444	4.78E-04
1.945	1.49444	4.82E-04
1.950	1.49271	4.70E-04
1.955	1.49287	4.87E-04
1.960	1.49664	4.93E-04
1.965	1.49953	4.89E-04
1.970	1.49914	4.87E-04
1.975	1.49405	5.04E-04
1.980	1.49515	4.94E-04
1.985	1.49216	4.99E-04
1.990	1.49742	5.00E-04
1.995	1.49546	5.08E-04
2.000	1.49452	5.14E-04
