Material: glass / isuzu / ITY430
Optical constants. Data kindly provided by Koichiro Ikeda, ISUZU GLASS LTD. Nov 2024. See also Isuzu Glass Products
Comments: UV sharp cut filter (ITY series). Glass type: SiO2-B2O3.
Specs: {"nd": 1.506, "Vd": 62.1, "density": 2390, "thermal_expansion": [{"temperature_range": "373 573", "value": "6.8-06"}], "transformation_temperature": 802, "durability": 4, "hardness": [{"type": "Knoop", "value": "5.10e9"}]}
wavelength (um)	n	k
0.300	1.54138	1.28E-04
0.304	1.53842	1.43E-04
0.308	1.55256	1.62E-04
0.312	1.54758	1.61E-04
0.316	1.54524	1.71E-04
0.320	1.53271	1.67E-04
0.324	1.53111	1.90E-04
0.328	1.53553	1.90E-04
0.332	1.53226	2.31E-04
0.336	1.53485	2.61E-04
0.340	1.53226	1.78E-04
0.344	1.53568	1.97E-04
0.348	1.53568	2.70E-04
0.352	1.53142	1.79E-04
0.356	1.53149	1.89E-04
0.360	1.52874	2.03E-04
0.364	1.53187	2.04E-04
0.368	1.53088	2.30E-04
0.372	1.52989	2.16E-04
0.376	1.52691	2.20E-04
0.380	1.52706	2.10E-04
0.384	1.52737	2.27E-04
0.388	1.52691	2.37E-04
0.392	1.52507	2.12E-04
0.396	1.52492	2.08E-04
0.400	1.52469	2.00E-04
0.404	1.52246	1.95E-04
0.408	1.52185	1.91E-04
0.412	1.52015	1.83E-04
0.416	1.51962	1.69E-04
0.420	1.52115	1.16E-04
0.424	1.52038	5.98E-05
0.428	1.51808	2.69E-05
0.432	1.51769	1.05E-05
0.436	1.51599	3.94E-06
0.440	1.51730	1.70E-06
0.444	1.51607	9.31E-07
0.448	1.51723	6.81E-07
0.452	1.51538	5.71E-07
0.456	1.51437	4.75E-07
0.460	1.51422	4.85E-07
0.464	1.51267	4.76E-07
0.468	1.51306	5.33E-07
0.472	1.51337	5.12E-07
0.476	1.51298	4.11E-07
0.480	1.51213	4.20E-07
0.484	1.51205	4.82E-07
0.488	1.51174	3.71E-07
0.492	1.51112	3.59E-07
0.496	1.50981	2.85E-07
0.500	1.51004	3.32E-07
0.504	1.50988	3.63E-07
0.508	1.51035	3.82E-07
0.512	1.50911	3.50E-07
0.516	1.50934	3.24E-07
0.520	1.50872	2.70E-07
0.524	1.50833	3.75E-07
0.528	1.50787	3.17E-07
0.532	1.50717	3.35E-07
0.536	1.50802	2.70E-07
0.540	1.50662	3.79E-07
0.544	1.50662	3.59E-07
0.548	1.50655	3.82E-07
0.552	1.50686	4.01E-07
0.556	1.50600	4.89E-07
0.560	1.50647	4.29E-07
0.564	1.50585	4.87E-07
0.568	1.50592	4.98E-07
0.572	1.50577	4.92E-07
0.576	1.50483	5.67E-07
0.580	1.50476	6.04E-07
0.584	1.50460	6.57E-07
0.588	1.50468	7.02E-07
0.592	1.50445	6.75E-07
0.596	1.50413	7.07E-07
0.600	1.50320	7.81E-07
0.604	1.50374	7.81E-07
0.608	1.50374	8.19E-07
0.612	1.50351	8.88E-07
0.616	1.50335	8.83E-07
0.620	1.50312	8.61E-07
0.624	1.50289	9.64E-07
0.628	1.50258	1.09E-06
0.632	1.50219	1.10E-06
0.636	1.50273	1.25E-06
0.640	1.50226	1.23E-06
0.644	1.50258	1.24E-06
0.648	1.50172	1.27E-06
0.652	1.50172	1.33E-06
0.656	1.50219	1.39E-06
0.660	1.50187	1.60E-06
0.664	1.50172	1.52E-06
0.668	1.50195	1.59E-06
0.672	1.50148	1.66E-06
0.676	1.50156	1.77E-06
0.680	1.50070	1.71E-06
0.684	1.50078	1.73E-06
0.688	1.50062	1.85E-06
0.692	1.50102	1.84E-06
0.696	1.50047	1.96E-06
0.700	1.50031	2.06E-06
0.704	1.50062	2.06E-06
0.708	1.50031	2.20E-06
0.712	1.49961	2.16E-06
0.716	1.50039	2.30E-06
0.720	1.49953	2.30E-06
0.724	1.49937	2.38E-06
0.728	1.49914	2.38E-06
0.732	1.49961	2.37E-06
0.736	1.49945	2.42E-06
0.740	1.49922	2.33E-06
0.744	1.49961	2.54E-06
0.748	1.50016	2.64E-06
0.752	1.49906	2.70E-06
0.756	1.49875	2.60E-06
0.760	1.49867	2.80E-06
0.764	1.49859	2.83E-06
0.768	1.49914	2.74E-06
0.772	1.49945	2.73E-06
0.776	1.49914	2.84E-06
0.780	1.49836	3.01E-06
0.784	1.49937	2.90E-06
0.788	1.49937	2.69E-06
0.792	1.50023	2.98E-06
0.796	1.49875	2.61E-06
0.800	1.49859	2.91E-06
0.804	1.49828	2.61E-06
0.808	1.49765	2.86E-06
0.812	1.49930	2.89E-06
0.816	1.49851	2.88E-06
0.820	1.49765	3.12E-06
0.824	1.49836	2.95E-06
0.828	1.49695	2.84E-06
0.832	1.49758	3.05E-06
0.836	1.49820	2.59E-06
0.840	1.49945	2.75E-06
0.844	1.49961	2.83E-06
0.848	1.49867	2.45E-06
0.852	1.49891	3.10E-06
0.856	1.49891	3.07E-06
0.860	1.49632	3.01E-06
0.864	1.49664	3.06E-06
0.868	1.49671	3.14E-06
0.872	1.49695	2.92E-06
0.876	1.49773	2.87E-06
0.880	1.49844	3.01E-06
0.884	1.49969	2.89E-06
0.888	1.49797	2.98E-06
0.892	1.49656	2.91E-06
0.896	1.49930	2.98E-06
0.900	1.49914	2.95E-06
0.904	1.49937	2.88E-06
0.908	1.49726	2.90E-06
0.912	1.49781	2.93E-06
0.916	1.49859	2.91E-06
0.920	1.49953	2.82E-06
0.924	1.49883	2.90E-06
0.928	1.49812	2.82E-06
0.932	1.49961	2.87E-06
0.936	1.49812	2.76E-06
0.940	1.49851	2.65E-06
0.944	1.49898	2.76E-06
0.948	1.49703	2.75E-06
0.952	1.49562	2.59E-06
0.956	1.49577	2.84E-06
0.960	1.49828	2.69E-06
0.964	1.49577	2.62E-06
0.968	1.49836	2.55E-06
0.972	1.49797	2.59E-06
0.976	1.49648	2.60E-06
0.980	1.49671	2.44E-06
0.984	1.49718	2.55E-06
0.988	1.49577	2.56E-06
0.992	1.49601	2.56E-06
0.996	1.49577	2.35E-06
1.000	1.49703	2.42E-06
1.004	1.49593	2.41E-06
1.008	1.49444	2.45E-06
1.012	1.49617	2.33E-06
1.016	1.49530	2.28E-06
1.020	1.49797	2.25E-06
1.024	1.49679	2.29E-06
1.028	1.49483	2.21E-06
1.032	1.49656	2.21E-06
1.036	1.49695	2.14E-06
1.040	1.49577	2.24E-06
1.044	1.49640	2.23E-06
1.048	1.49601	2.24E-06
1.052	1.49593	2.15E-06
1.056	1.49515	2.15E-06
1.060	1.49413	2.22E-06
1.064	1.49585	2.23E-06
1.068	1.49405	2.13E-06
1.072	1.49389	2.10E-06
1.076	1.49483	1.98E-06
1.080	1.49444	2.13E-06
1.084	1.49475	2.01E-06
1.088	1.49468	2.08E-06
1.092	1.49523	1.91E-06
1.096	1.49483	1.81E-06
1.100	1.49436	1.97E-06
1.104	1.49585	1.92E-06
1.108	1.49444	1.92E-06
1.112	1.49350	2.05E-06
1.116	1.49397	1.81E-06
1.120	1.49279	1.89E-06
1.124	1.49475	1.84E-06
1.128	1.49342	1.80E-06
1.132	1.49263	1.82E-06
1.136	1.49358	1.91E-06
1.140	1.49389	1.62E-06
1.144	1.49428	1.78E-06
1.148	1.49421	1.76E-06
1.152	1.49326	1.67E-06
1.156	1.49169	1.66E-06
1.160	1.49311	1.71E-06
1.164	1.49287	1.52E-06
1.168	1.49279	1.64E-06
1.172	1.49177	1.51E-06
1.176	1.49287	1.63E-06
1.180	1.49248	1.68E-06
1.184	1.49366	1.47E-06
1.188	1.49248	1.58E-06
1.192	1.49381	1.54E-06
1.196	1.49279	1.47E-06
1.200	1.49413	1.61E-06
1.204	1.49287	1.47E-06
1.208	1.49177	1.53E-06
1.212	1.49201	1.37E-06
1.216	1.49248	1.30E-06
1.220	1.49224	1.55E-06
1.224	1.49279	1.36E-06
1.228	1.49177	1.34E-06
1.232	1.49169	1.40E-06
1.236	1.49232	1.34E-06
1.240	1.49350	1.25E-06
1.244	1.49224	1.38E-06
1.248	1.49216	1.43E-06
1.252	1.49224	1.38E-06
1.256	1.49145	1.37E-06
1.260	1.49138	1.36E-06
1.264	1.49216	1.45E-06
1.268	1.49185	1.50E-06
1.272	1.49090	1.19E-06
1.276	1.49177	1.39E-06
1.280	1.49263	1.31E-06
1.284	1.49287	1.22E-06
1.288	1.49271	1.27E-06
1.292	1.49240	1.25E-06
1.296	1.49263	1.17E-06
1.300	1.49193	1.19E-06
1.304	1.49185	1.18E-06
1.308	1.49185	9.14E-07
1.312	1.49161	1.11E-06
1.316	1.49130	1.15E-06
1.320	1.49122	1.18E-06
1.324	1.49012	1.35E-06
1.328	1.48980	1.21E-06
1.332	1.48917	1.18E-06
1.336	1.49035	1.10E-06
1.340	1.48949	1.13E-06
1.344	1.49083	1.07E-06
1.348	1.49083	1.08E-06
1.352	1.48925	1.19E-06
1.356	1.48980	1.23E-06
1.360	1.48957	1.07E-06
1.364	1.48949	1.07E-06
1.368	1.49161	9.98E-07
1.372	1.49051	9.78E-07
1.376	1.48988	1.26E-06
1.380	1.49114	1.24E-06
1.384	1.49051	1.07E-06
1.388	1.48957	1.11E-06
1.392	1.49067	1.44E-06
1.396	1.48964	1.58E-06
1.400	1.49004	1.43E-06
1.404	1.48838	1.66E-06
1.408	1.48917	1.83E-06
1.412	1.48878	1.60E-06
1.416	1.48830	1.52E-06
1.420	1.48925	1.61E-06
1.424	1.48949	1.52E-06
1.428	1.48822	1.29E-06
1.432	1.48917	1.41E-06
1.436	1.48893	1.53E-06
1.440	1.48767	1.43E-06
1.444	1.48728	1.42E-06
1.448	1.48799	1.24E-06
1.452	1.48846	1.24E-06
1.456	1.48736	1.36E-06
1.460	1.48633	1.25E-06
1.464	1.48680	1.34E-06
1.468	1.48728	1.24E-06
1.472	1.48633	1.18E-06
1.476	1.48673	1.13E-06
1.480	1.48594	1.27E-06
1.484	1.48641	1.14E-06
1.488	1.48665	1.09E-06
1.492	1.48594	1.21E-06
1.496	1.48586	1.20E-06
1.500	1.48570	1.16E-06
