Material: glass / isuzu / ITY425
Optical constants. Data kindly provided by Koichiro Ikeda, ISUZU GLASS LTD. Nov 2024. See also Isuzu Glass Products
Comments: UV sharp cut filter (ITY series). Glass type: SiO2-B2O3.
Specs: {"nd": 1.503, "Vd": 62.9, "density": 2400, "thermal_expansion": [{"temperature_range": "373 573", "value": "6.1-06"}], "transformation_temperature": 810, "durability": 4, "hardness": [{"type": "Knoop", "value": "5.02e9"}]}
wavelength (um)	n	k
0.300	1.53568	1.79E-04
0.304	1.53431	1.53E-04
0.308	1.52844	2.00E-04
0.312	1.53020	1.83E-04
0.316	1.51399	1.87E-04
0.320	1.51962	2.13E-04
0.324	1.53142	2.55E-04
0.328	1.52821	2.39E-04
0.332	1.52238	2.40E-04
0.336	1.53187	1.96E-04
0.340	1.52943	2.21E-04
0.344	1.52958	2.05E-04
0.348	1.52323	2.07E-04
0.352	1.52874	2.15E-04
0.356	1.52284	2.20E-04
0.360	1.52469	2.52E-04
0.364	1.52583	2.50E-04
0.368	1.52576	2.53E-04
0.372	1.52115	2.69E-04
0.376	1.51977	2.55E-04
0.380	1.51808	2.48E-04
0.384	1.51969	2.74E-04
0.388	1.51977	2.44E-04
0.392	1.51892	2.35E-04
0.396	1.51869	2.31E-04
0.400	1.51607	2.18E-04
0.404	1.51831	2.13E-04
0.408	1.51507	2.10E-04
0.412	1.51553	2.01E-04
0.416	1.51777	1.82E-04
0.420	1.51607	8.54E-05
0.424	1.51592	3.47E-05
0.428	1.51329	1.17E-05
0.432	1.51314	3.81E-06
0.436	1.51414	1.75E-06
0.440	1.51306	1.26E-06
0.444	1.51283	1.00E-06
0.448	1.51151	8.52E-07
0.452	1.51205	7.79E-07
0.456	1.51120	8.57E-07
0.460	1.51112	7.15E-07
0.464	1.50942	7.38E-07
0.468	1.50988	6.60E-07
0.472	1.51027	6.54E-07
0.476	1.50903	6.75E-07
0.480	1.50919	5.41E-07
0.484	1.50802	6.66E-07
0.488	1.50794	5.84E-07
0.492	1.50825	6.15E-07
0.496	1.50794	4.65E-07
0.500	1.50709	4.83E-07
0.504	1.50740	5.55E-07
0.508	1.50600	4.33E-07
0.512	1.50647	4.37E-07
0.516	1.50616	4.44E-07
0.520	1.50647	4.20E-07
0.524	1.50592	4.03E-07
0.528	1.50569	4.40E-07
0.532	1.50546	4.51E-07
0.536	1.50507	5.21E-07
0.540	1.50468	5.46E-07
0.544	1.50468	4.79E-07
0.548	1.50483	5.11E-07
0.552	1.50413	5.98E-07
0.556	1.50398	6.12E-07
0.560	1.50374	6.56E-07
0.564	1.50367	7.10E-07
0.568	1.50297	7.22E-07
0.572	1.50343	7.82E-07
0.576	1.50359	8.48E-07
0.580	1.50304	9.25E-07
0.584	1.50281	1.00E-06
0.588	1.50258	1.05E-06
0.592	1.50265	1.04E-06
0.596	1.50234	1.13E-06
0.600	1.50187	1.23E-06
0.604	1.50187	1.27E-06
0.608	1.50148	1.32E-06
0.612	1.50125	1.34E-06
0.616	1.50172	1.35E-06
0.620	1.50125	1.51E-06
0.624	1.50102	1.62E-06
0.628	1.50125	1.64E-06
0.632	1.50062	1.80E-06
0.636	1.50102	1.79E-06
0.640	1.50070	1.85E-06
0.644	1.50102	1.99E-06
0.648	1.50039	2.03E-06
0.652	1.50000	2.08E-06
0.656	1.50039	2.31E-06
0.660	1.50031	2.34E-06
0.664	1.50031	2.58E-06
0.668	1.50031	2.50E-06
0.672	1.50055	2.65E-06
0.676	1.50031	2.73E-06
0.680	1.49984	2.66E-06
0.684	1.49969	2.80E-06
0.688	1.49969	2.92E-06
0.692	1.49937	3.11E-06
0.696	1.49891	3.22E-06
0.700	1.49930	3.26E-06
0.704	1.49906	3.36E-06
0.708	1.49859	3.46E-06
0.712	1.49930	3.41E-06
0.716	1.49875	3.49E-06
0.720	1.49891	3.60E-06
0.724	1.49828	3.64E-06
0.728	1.49867	3.69E-06
0.732	1.49867	3.82E-06
0.736	1.49867	3.94E-06
0.740	1.49844	4.06E-06
0.744	1.49859	3.87E-06
0.748	1.49844	4.01E-06
0.752	1.49828	4.19E-06
0.756	1.49797	4.21E-06
0.760	1.49828	4.21E-06
0.764	1.49820	4.26E-06
0.768	1.49812	4.44E-06
0.772	1.49805	4.23E-06
0.776	1.49875	4.41E-06
0.780	1.49781	4.43E-06
0.784	1.49898	4.11E-06
0.788	1.49836	4.40E-06
0.792	1.49797	4.48E-06
0.796	1.49805	4.27E-06
0.800	1.49789	4.28E-06
0.804	1.49828	4.47E-06
0.808	1.49883	4.50E-06
0.812	1.49828	4.38E-06
0.816	1.49789	4.68E-06
0.820	1.49914	4.80E-06
0.824	1.49859	4.67E-06
0.828	1.49828	4.21E-06
0.832	1.49679	4.51E-06
0.836	1.49664	4.45E-06
0.840	1.49617	4.13E-06
0.844	1.49483	4.71E-06
0.848	1.49945	4.59E-06
0.852	1.49303	4.63E-06
0.856	1.49397	4.61E-06
0.860	1.49389	4.49E-06
0.864	1.49279	4.50E-06
0.868	1.49530	4.68E-06
0.872	1.49499	4.69E-06
0.876	1.49468	4.57E-06
0.880	1.49617	4.44E-06
0.884	1.49664	4.46E-06
0.888	1.49812	4.51E-06
0.892	1.49867	4.45E-06
0.896	1.49671	4.12E-06
0.900	1.49844	4.38E-06
0.904	1.49883	4.65E-06
0.908	1.49648	4.46E-06
0.912	1.49789	4.45E-06
0.916	1.49703	4.35E-06
0.920	1.49859	4.28E-06
0.924	1.49758	4.36E-06
0.928	1.49773	4.36E-06
0.932	1.49742	4.31E-06
0.936	1.49593	4.26E-06
0.940	1.49491	4.17E-06
0.944	1.49718	4.07E-06
0.948	1.49797	4.12E-06
0.952	1.49711	4.18E-06
0.956	1.49523	4.14E-06
0.960	1.49515	4.08E-06
0.964	1.49718	4.12E-06
0.968	1.49601	4.16E-06
0.972	1.49554	4.07E-06
0.976	1.49499	3.97E-06
0.980	1.49475	3.95E-06
0.984	1.49679	4.08E-06
0.988	1.49577	4.11E-06
0.992	1.49656	3.81E-06
0.996	1.49664	3.81E-06
1.000	1.49718	3.75E-06
1.004	1.49554	3.73E-06
1.008	1.49499	3.85E-06
1.012	1.49617	3.72E-06
1.016	1.49601	3.45E-06
1.020	1.49483	3.43E-06
1.024	1.49436	3.65E-06
1.028	1.49515	3.52E-06
1.032	1.49326	3.47E-06
1.036	1.49632	3.34E-06
1.040	1.49538	3.42E-06
1.044	1.49358	3.34E-06
1.048	1.49452	3.39E-06
1.052	1.49366	3.55E-06
1.056	1.49428	3.23E-06
1.060	1.49366	3.35E-06
1.064	1.49381	3.47E-06
1.068	1.49326	3.35E-06
1.072	1.49483	3.13E-06
1.076	1.49271	3.15E-06
1.080	1.49224	3.13E-06
1.084	1.49326	3.13E-06
1.088	1.49428	2.86E-06
1.092	1.49334	3.15E-06
1.096	1.49413	3.04E-06
1.100	1.49263	2.83E-06
1.104	1.49444	2.96E-06
1.108	1.49428	3.00E-06
1.112	1.49373	2.83E-06
1.116	1.49468	2.71E-06
1.120	1.49397	2.92E-06
1.124	1.49413	2.89E-06
1.128	1.49342	2.71E-06
1.132	1.49318	2.66E-06
1.136	1.49350	2.78E-06
1.140	1.49240	2.76E-06
1.144	1.49240	2.67E-06
1.148	1.49373	2.69E-06
1.152	1.49366	2.58E-06
1.156	1.49421	2.55E-06
1.160	1.49389	2.44E-06
1.164	1.49366	2.42E-06
1.168	1.49311	2.44E-06
1.172	1.49240	2.44E-06
1.176	1.49318	2.51E-06
1.180	1.49263	2.26E-06
1.184	1.49287	2.33E-06
1.188	1.49161	2.24E-06
1.192	1.49350	2.34E-06
1.196	1.49232	2.53E-06
1.200	1.49122	2.33E-06
1.204	1.49295	2.27E-06
1.208	1.49318	2.38E-06
1.212	1.49342	2.11E-06
1.216	1.49161	2.30E-06
1.220	1.49224	2.17E-06
1.224	1.49279	2.22E-06
1.228	1.49334	2.07E-06
1.232	1.49240	2.17E-06
1.236	1.49177	2.20E-06
1.240	1.49169	1.99E-06
1.244	1.49185	2.04E-06
1.248	1.49098	2.07E-06
1.252	1.49342	2.14E-06
1.256	1.49240	2.07E-06
1.260	1.49114	2.01E-06
1.264	1.49240	2.11E-06
1.268	1.49193	2.03E-06
1.272	1.49240	1.90E-06
1.276	1.49075	1.81E-06
1.280	1.49138	1.81E-06
1.284	1.49208	2.10E-06
1.288	1.49145	1.88E-06
1.292	1.49114	1.78E-06
1.296	1.49177	1.73E-06
1.300	1.49177	1.72E-06
1.304	1.49051	1.80E-06
1.308	1.49161	1.90E-06
1.312	1.49090	1.70E-06
1.316	1.49051	1.66E-06
1.320	1.49106	1.79E-06
1.324	1.49043	1.69E-06
1.328	1.49075	1.79E-06
1.332	1.49114	1.77E-06
1.336	1.49035	1.68E-06
1.340	1.49090	1.52E-06
1.344	1.49153	1.42E-06
1.348	1.49106	1.32E-06
1.352	1.49185	1.28E-06
1.356	1.49027	1.49E-06
1.360	1.48964	1.54E-06
1.364	1.48972	1.50E-06
1.368	1.49106	1.57E-06
1.372	1.49145	1.34E-06
1.376	1.49090	1.52E-06
1.380	1.48933	1.58E-06
1.384	1.48964	1.69E-06
1.388	1.49020	1.75E-06
1.392	1.49059	1.65E-06
1.396	1.49043	2.01E-06
1.400	1.49004	1.96E-06
1.404	1.48980	2.09E-06
1.408	1.48901	2.16E-06
1.412	1.48886	2.25E-06
1.416	1.48862	2.29E-06
1.420	1.48996	2.17E-06
1.424	1.48980	1.90E-06
1.428	1.48870	2.06E-06
1.432	1.48815	1.89E-06
1.436	1.48830	1.78E-06
1.440	1.48846	1.90E-06
1.444	1.48830	1.78E-06
1.448	1.48736	1.82E-06
1.452	1.48799	1.53E-06
1.456	1.48720	1.55E-06
1.460	1.48791	1.61E-06
1.464	1.48712	1.47E-06
1.468	1.48649	1.40E-06
1.472	1.48704	1.60E-06
1.476	1.48665	1.59E-06
1.480	1.48649	1.47E-06
1.484	1.48696	1.40E-06
1.488	1.48783	1.25E-06
1.492	1.48696	1.08E-06
1.496	1.48649	1.46E-06
1.500	1.48641	1.34E-06
