Material: glass / isuzu / ITY418
Optical constants. Data kindly provided by Koichiro Ikeda, ISUZU GLASS LTD. Nov 2024. See also Isuzu Glass Products
Comments: UV sharp cut filter (ITY series). Glass type: SiO2-B2O3.
Specs: {"nd": 1.499, "Vd": 62.4, "density": 2380, "thermal_expansion": [{"temperature_range": "373 573", "value": "6.9-06"}], "transformation_temperature": 790, "durability": 4, "hardness": [{"type": "Knoop", "value": "4.82e9"}]}
wavelength (um)	n	k
0.200	1.59072	7.15E-05
0.205	1.56657	7.32E-05
0.210	1.56373	8.06E-05
0.215	1.54123	8.82E-05
0.220	1.53857	9.66E-05
0.225	1.52844	1.00E-04
0.230	1.52215	1.01E-04
0.235	1.51792	1.01E-04
0.240	1.51553	1.03E-04
0.245	1.51066	1.04E-04
0.250	1.50748	1.07E-04
0.255	1.50429	1.10E-04
0.260	1.50141	1.14E-04
0.265	1.49922	1.20E-04
0.270	1.49906	1.26E-04
0.275	1.49718	1.34E-04
0.280	1.49311	1.43E-04
0.285	1.49405	1.54E-04
0.290	1.49405	1.65E-04
0.295	1.49098	1.77E-04
0.300	1.49256	1.90E-04
0.305	1.48862	2.02E-04
0.310	1.48846	2.11E-04
0.315	1.48862	2.24E-04
0.320	1.48601	2.27E-04
0.325	1.48744	2.37E-04
0.330	1.48751	2.41E-04
0.335	1.48467	2.54E-04
0.340	1.48886	2.41E-04
0.345	1.49020	2.35E-04
0.350	1.49020	2.43E-04
0.355	1.49012	2.52E-04
0.360	1.48893	2.56E-04
0.365	1.48854	2.53E-04
0.370	1.48862	2.63E-04
0.375	1.48886	2.56E-04
0.380	1.48775	2.31E-04
0.385	1.48751	2.08E-04
0.390	1.48728	1.93E-04
0.395	1.48807	1.80E-04
0.400	1.48775	1.70E-04
0.405	1.48759	1.58E-04
0.410	1.48720	1.39E-04
0.415	1.48751	4.05E-05
0.420	1.48759	8.67E-06
0.425	1.48744	2.01E-06
0.430	1.48751	1.04E-06
0.435	1.48712	8.58E-07
0.440	1.48736	7.54E-07
0.445	1.48712	6.91E-07
0.450	1.48736	6.48E-07
0.455	1.48728	6.02E-07
0.460	1.48704	5.48E-07
0.465	1.48751	5.26E-07
0.470	1.48736	4.93E-07
0.475	1.48744	4.61E-07
0.480	1.48704	4.47E-07
0.485	1.48696	4.35E-07
0.490	1.48680	4.28E-07
0.495	1.48665	4.15E-07
0.500	1.48673	4.01E-07
0.505	1.48665	3.95E-07
0.510	1.48657	4.01E-07
0.515	1.48649	3.88E-07
0.520	1.48673	3.96E-07
0.525	1.48665	4.10E-07
0.530	1.48673	4.09E-07
0.535	1.48665	4.45E-07
0.540	1.48673	4.64E-07
0.545	1.48688	4.73E-07
0.550	1.48696	5.06E-07
0.555	1.48641	5.45E-07
0.560	1.48704	5.68E-07
0.565	1.48704	6.23E-07
0.570	1.48696	6.87E-07
0.575	1.48657	7.17E-07
0.580	1.48720	7.76E-07
0.585	1.48696	8.35E-07
0.590	1.48696	9.05E-07
0.595	1.48704	9.75E-07
0.600	1.48744	1.03E-06
0.605	1.48704	1.10E-06
0.610	1.48712	1.19E-06
0.615	1.48712	1.26E-06
0.620	1.48680	1.35E-06
0.625	1.48744	1.41E-06
0.630	1.48704	1.52E-06
0.635	1.48704	1.60E-06
0.640	1.48720	1.69E-06
0.645	1.48704	1.81E-06
0.650	1.48744	1.88E-06
0.655	1.48744	1.97E-06
0.660	1.48736	2.06E-06
0.665	1.48657	2.16E-06
0.670	1.48617	2.26E-06
0.675	1.48554	2.36E-06
0.680	1.48578	2.44E-06
0.685	1.48578	2.53E-06
0.690	1.48609	2.60E-06
0.695	1.48641	2.70E-06
0.700	1.48633	2.78E-06
0.705	1.48633	2.87E-06
0.710	1.48673	2.93E-06
0.715	1.48657	3.04E-06
0.720	1.48657	3.09E-06
0.725	1.48649	3.16E-06
0.730	1.48665	3.22E-06
0.735	1.48649	3.29E-06
0.740	1.48641	3.35E-06
0.745	1.48704	3.40E-06
0.750	1.48688	3.46E-06
0.755	1.48704	3.49E-06
0.760	1.48712	3.55E-06
0.765	1.48673	3.60E-06
0.770	1.48688	3.63E-06
0.775	1.48704	3.66E-06
0.780	1.48680	3.70E-06
0.785	1.48704	3.72E-06
0.790	1.48791	3.74E-06
0.795	1.48649	3.80E-06
0.800	1.48751	3.77E-06
0.805	1.48720	3.82E-06
0.810	1.48696	3.83E-06
0.815	1.48799	3.80E-06
0.820	1.48712	3.82E-06
0.825	1.48688	3.86E-06
0.830	1.48751	3.82E-06
0.835	1.48665	3.88E-06
0.840	1.48696	3.78E-06
0.845	1.48767	3.81E-06
0.850	1.47721	3.92E-06
0.855	1.46809	4.02E-06
0.860	1.47210	3.89E-06
0.865	1.46769	3.78E-06
0.870	1.46898	4.01E-06
0.875	1.47066	3.97E-06
0.880	1.46970	3.91E-06
0.885	1.47010	3.98E-06
0.890	1.46890	3.92E-06
0.895	1.47114	3.83E-06
0.900	1.47186	3.82E-06
0.905	1.47242	3.83E-06
0.910	1.46938	3.78E-06
0.915	1.47234	3.81E-06
0.920	1.46914	3.71E-06
0.925	1.47098	3.71E-06
0.930	1.47338	3.63E-06
0.935	1.47458	3.57E-06
0.940	1.47338	3.56E-06
0.945	1.47234	3.56E-06
0.950	1.47410	3.48E-06
0.955	1.47585	3.40E-06
0.960	1.46962	3.55E-06
0.965	1.47274	3.43E-06
0.970	1.47386	3.38E-06
0.975	1.46970	3.39E-06
0.980	1.47354	3.28E-06
0.985	1.47114	3.26E-06
0.990	1.47346	3.25E-06
0.995	1.47082	3.23E-06
1.000	1.47290	3.15E-06
1.005	1.47394	3.05E-06
1.010	1.47226	3.13E-06
1.015	1.47498	3.01E-06
1.020	1.47202	3.01E-06
1.025	1.47538	2.89E-06
1.030	1.47378	2.95E-06
1.035	1.47210	2.92E-06
1.040	1.47410	2.87E-06
1.045	1.47234	2.82E-06
1.050	1.47290	2.78E-06
1.055	1.47314	2.78E-06
1.060	1.47362	2.63E-06
1.065	1.47410	2.80E-06
1.070	1.47362	2.66E-06
1.075	1.47625	2.54E-06
1.080	1.47298	2.56E-06
1.085	1.47434	2.53E-06
1.090	1.47242	2.53E-06
1.095	1.47202	2.51E-06
1.100	1.47250	2.42E-06
1.105	1.47106	2.47E-06
1.110	1.47370	2.31E-06
1.115	1.47274	2.36E-06
1.120	1.47234	2.33E-06
1.125	1.47098	2.34E-06
1.130	1.47530	2.22E-06
1.135	1.47106	2.26E-06
1.140	1.47186	2.15E-06
1.145	1.47338	2.24E-06
1.150	1.47354	2.10E-06
1.155	1.47234	2.12E-06
1.160	1.47266	2.18E-06
1.165	1.47098	2.15E-06
1.170	1.47194	1.97E-06
1.175	1.47322	1.98E-06
1.180	1.47378	1.91E-06
1.185	1.47122	1.99E-06
1.190	1.47330	1.84E-06
1.195	1.47138	1.92E-06
1.200	1.47266	1.78E-06
1.205	1.47146	1.90E-06
1.210	1.47058	1.84E-06
1.215	1.47170	1.79E-06
1.220	1.47242	1.79E-06
1.225	1.47402	1.74E-06
1.230	1.47194	1.73E-06
1.235	1.47202	1.74E-06
1.240	1.47298	1.70E-06
1.245	1.47074	1.72E-06
1.250	1.47210	1.68E-06
1.255	1.47146	1.66E-06
1.260	1.47114	1.62E-06
1.265	1.47090	1.62E-06
1.270	1.47258	1.54E-06
1.275	1.47026	1.59E-06
1.280	1.46986	1.58E-06
1.285	1.47122	1.52E-06
1.290	1.47218	1.51E-06
1.295	1.46857	1.57E-06
1.300	1.47330	1.42E-06
1.305	1.47066	1.45E-06
1.310	1.47178	1.41E-06
1.315	1.47122	1.40E-06
1.320	1.47138	1.36E-06
1.325	1.47106	1.34E-06
1.330	1.46994	1.38E-06
1.335	1.47114	1.45E-06
1.340	1.47154	1.31E-06
1.345	1.47130	1.38E-06
1.350	1.46986	1.48E-06
1.355	1.47002	1.31E-06
1.360	1.47098	1.46E-06
1.365	1.47106	1.39E-06
1.370	1.47066	1.44E-06
1.375	1.46930	1.51E-06
1.380	1.47034	1.52E-06
1.385	1.46986	1.82E-06
1.390	1.46865	1.97E-06
1.395	1.46665	2.25E-06
1.400	1.47034	2.23E-06
1.405	1.47010	2.32E-06
1.410	1.46873	2.22E-06
1.415	1.46849	2.22E-06
1.420	1.47050	2.05E-06
1.425	1.46946	2.00E-06
1.430	1.47178	1.88E-06
1.435	1.46914	1.72E-06
1.440	1.46954	1.68E-06
1.445	1.46849	1.66E-06
1.450	1.47178	1.48E-06
1.455	1.46881	1.52E-06
1.460	1.46914	1.46E-06
1.465	1.46890	1.41E-06
1.470	1.47074	1.43E-06
1.475	1.46906	1.26E-06
1.480	1.46560	1.35E-06
1.485	1.46865	1.30E-06
1.490	1.47042	1.17E-06
1.495	1.46986	1.20E-06
1.500	1.46737	1.24E-06
1.505	1.46986	1.15E-06
1.510	1.47378	1.08E-06
1.515	1.46962	1.11E-06
1.520	1.46994	1.03E-06
1.525	1.46841	1.19E-06
1.530	1.47090	1.07E-06
1.535	1.46777	1.15E-06
1.540	1.46970	1.09E-06
1.545	1.46729	1.08E-06
1.550	1.46745	1.10E-06
1.555	1.46785	1.14E-06
1.560	1.46914	1.09E-06
1.565	1.46761	1.02E-06
1.570	1.46898	1.06E-06
1.575	1.46849	1.12E-06
1.580	1.46930	1.02E-06
1.585	1.46922	1.06E-06
1.590	1.46817	1.05E-06
1.595	1.46881	1.03E-06
1.600	1.46665	1.06E-06
1.605	1.46769	1.05E-06
1.610	1.46737	1.02E-06
1.615	1.46857	9.92E-07
1.620	1.46753	1.05E-06
1.625	1.46681	9.93E-07
1.630	1.46809	1.01E-06
1.635	1.46777	9.95E-07
1.640	1.46946	9.28E-07
1.645	1.46681	1.05E-06
1.650	1.46865	1.01E-06
1.655	1.46729	1.03E-06
1.660	1.46584	1.03E-06
1.665	1.46825	1.01E-06
1.670	1.46528	1.06E-06
1.675	1.46681	1.03E-06
1.680	1.46705	9.97E-07
1.685	1.46471	1.07E-06
1.690	1.46753	9.82E-07
1.695	1.46793	9.15E-07
1.700	1.46721	1.02E-06
1.705	1.46665	9.78E-07
1.710	1.46544	1.03E-06
1.715	1.46480	1.04E-06
1.720	1.46536	1.06E-06
1.725	1.46480	1.01E-06
1.730	1.46673	1.05E-06
1.735	1.46496	1.01E-06
1.740	1.46439	1.10E-06
1.745	1.46415	1.08E-06
1.750	1.46657	9.93E-07
1.755	1.46713	8.97E-07
1.760	1.46423	1.12E-06
1.765	1.46488	1.20E-06
1.770	1.46471	1.01E-06
1.775	1.46471	1.13E-06
1.780	1.46415	9.96E-07
1.785	1.46480	1.14E-06
1.790	1.46246	1.03E-06
1.795	1.46447	1.15E-06
1.800	1.46616	1.14E-06
1.805	1.46471	1.35E-06
1.810	1.46351	9.65E-07
1.815	1.46423	1.11E-06
1.820	1.46375	1.37E-06
1.825	1.46383	1.20E-06
1.830	1.46431	1.37E-06
1.835	1.46221	1.07E-06
1.840	1.46359	1.40E-06
1.845	1.46367	1.17E-06
1.850	1.46351	1.13E-06
1.855	1.46294	1.17E-06
1.860	1.46230	1.11E-06
1.865	1.46318	1.11E-06
1.870	1.46488	1.12E-06
1.875	1.46310	1.09E-06
1.880	1.46407	1.24E-06
1.885	1.46076	1.47E-06
1.890	1.46100	1.33E-06
1.895	1.46367	1.32E-06
1.900	1.46343	1.27E-06
1.905	1.46278	1.24E-06
1.910	1.46423	1.22E-06
1.915	1.46318	1.14E-06
1.920	1.46407	1.13E-06
1.925	1.46246	1.21E-06
1.930	1.46108	1.36E-06
1.935	1.46181	1.29E-06
1.940	1.46157	1.31E-06
1.945	1.46181	1.36E-06
1.950	1.45906	1.38E-06
1.955	1.46286	1.34E-06
1.960	1.46181	1.34E-06
1.965	1.46334	1.53E-06
1.970	1.46423	1.50E-06
1.975	1.46092	1.69E-06
1.980	1.46286	1.60E-06
1.985	1.46351	1.63E-06
1.990	1.46141	1.77E-06
1.995	1.46011	1.42E-06
2.000	1.46141	1.83E-06
