Material: glass / isuzu / IUV340
Optical constants. Data kindly provided by Koichiro Ikeda, ISUZU GLASS LTD. Nov 2024. See also Isuzu Glass Products
Comments: UV transmitting filter, Visible absorbing filter (IUV series). Glass type: P2O5-Al2O3.
Specs: {"nd": 1.526, "Vd": 65.7, "density": 2640, "thermal_expansion": [{"temperature_range": "373 573", "value": 5.9e-06}], "transformation_temperature": 873, "durability": 2, "hardness": [{"type": "Knoop", "value": "4.84e9"}]}
wavelength (um)	n	k
0.200	1.67100	1.21E-04
0.205	1.66090	1.50E-04
0.210	1.65033	1.33E-04
0.215	1.64840	1.43E-04
0.220	1.63547	1.73E-04
0.225	1.62689	1.51E-04
0.230	1.61471	1.57E-04
0.235	1.60983	1.64E-04
0.240	1.60735	1.38E-04
0.245	1.60202	8.90E-05
0.250	1.59550	5.73E-05
0.255	1.59094	3.69E-05
0.260	1.58711	2.46E-05
0.265	1.58334	1.70E-05
0.270	1.58076	1.22E-05
0.275	1.57868	9.02E-06
0.280	1.57475	6.93E-06
0.285	1.57386	5.50E-06
0.290	1.56932	4.49E-06
0.295	1.56701	3.77E-06
0.300	1.56477	3.32E-06
0.305	1.56208	2.91E-06
0.310	1.56223	2.60E-06
0.315	1.55901	2.38E-06
0.320	1.55774	2.24E-06
0.325	1.55571	2.18E-06
0.330	1.55414	2.14E-06
0.335	1.55293	2.14E-06
0.340	1.55444	2.20E-06
0.345	1.55451	2.38E-06
0.350	1.55210	2.66E-06
0.355	1.55128	3.09E-06
0.360	1.55000	3.77E-06
0.365	1.54962	5.08E-06
0.370	1.54841	7.46E-06
0.375	1.54773	1.20E-05
0.380	1.54577	2.03E-05
0.385	1.54577	3.43E-05
0.390	1.54433	5.75E-05
0.395	1.54395	9.14E-05
0.400	1.54244	1.39E-04
0.405	1.54161	1.99E-04
0.410	1.54070	2.60E-04
0.415	1.54017	3.12E-04
0.420	1.53933	3.32E-04
0.425	1.53834	3.36E-04
0.430	1.53789	3.53E-04
0.435	1.53720	3.57E-04
0.440	1.53690	3.61E-04
0.445	1.53690	3.65E-04
0.450	1.53606	3.93E-04
0.455	1.53561	3.74E-04
0.460	1.53500	3.78E-04
0.465	1.53515	3.82E-04
0.470	1.53454	3.53E-04
0.475	1.53363	3.40E-04
0.480	1.53325	3.23E-04
0.485	1.53233	3.08E-04
0.490	1.53165	2.97E-04
0.495	1.53096	2.93E-04
0.500	1.53073	2.94E-04
0.505	1.53042	2.96E-04
0.510	1.53012	3.01E-04
0.515	1.52989	3.09E-04
0.520	1.52935	3.18E-04
0.525	1.52890	3.24E-04
0.530	1.52905	3.25E-04
0.535	1.52844	3.23E-04
0.540	1.52836	3.16E-04
0.545	1.52798	3.10E-04
0.550	1.52760	3.08E-04
0.555	1.52744	3.13E-04
0.560	1.52752	3.26E-04
0.565	1.52691	3.45E-04
0.570	1.52652	3.63E-04
0.575	1.52637	3.78E-04
0.580	1.52622	3.79E-04
0.585	1.52622	3.77E-04
0.590	1.52560	3.72E-04
0.595	1.52560	3.67E-04
0.600	1.52538	3.59E-04
0.605	1.52538	3.52E-04
0.610	1.52499	3.48E-04
0.615	1.52492	3.46E-04
0.620	1.52446	3.45E-04
0.625	1.52453	3.41E-04
0.630	1.52415	3.33E-04
0.635	1.52407	3.20E-04
0.640	1.52399	3.01E-04
0.645	1.52369	2.74E-04
0.650	1.52415	2.43E-04
0.655	1.52415	2.09E-04
0.660	1.52399	1.76E-04
0.665	1.52307	1.47E-04
0.670	1.52208	1.22E-04
0.675	1.52169	1.02E-04
0.680	1.52123	8.74E-05
0.685	1.52077	7.60E-05
0.690	1.52092	6.71E-05
0.695	1.52077	6.10E-05
0.700	1.52108	5.82E-05
0.705	1.52146	5.69E-05
0.710	1.52115	5.59E-05
0.715	1.52069	5.58E-05
0.720	1.52085	5.75E-05
0.725	1.52062	6.10E-05
0.730	1.52046	6.59E-05
0.735	1.52077	7.18E-05
0.740	1.52000	7.85E-05
0.745	1.51977	8.56E-05
0.750	1.52015	9.31E-05
0.755	1.52000	1.01E-04
0.760	1.52000	1.09E-04
0.765	1.51969	1.17E-04
0.770	1.51962	1.25E-04
0.775	1.51977	1.33E-04
0.780	1.51969	1.41E-04
0.785	1.51931	1.49E-04
0.790	1.51923	1.57E-04
0.795	1.51938	1.64E-04
0.800	1.51962	1.71E-04
0.805	1.51869	1.78E-04
0.810	1.51869	1.84E-04
0.815	1.51931	1.90E-04
0.820	1.51885	1.96E-04
0.825	1.51846	2.01E-04
0.830	1.51792	2.05E-04
0.835	1.51885	2.09E-04
0.840	1.51846	2.13E-04
0.845	1.51831	2.16E-04
0.850	1.50655	2.20E-04
0.855	1.49797	2.23E-04
0.860	1.50156	2.25E-04
0.865	1.50062	2.27E-04
0.870	1.50577	2.28E-04
0.875	1.50320	2.30E-04
0.880	1.50008	2.30E-04
0.885	1.50062	2.31E-04
0.890	1.50367	2.31E-04
0.895	1.50273	2.31E-04
0.900	1.50133	2.30E-04
0.905	1.50211	2.30E-04
0.910	1.50070	2.28E-04
0.915	1.50297	2.27E-04
0.920	1.50328	2.25E-04
0.925	1.50195	2.23E-04
0.930	1.50304	2.21E-04
0.935	1.50242	2.18E-04
0.940	1.50374	2.15E-04
0.945	1.50304	2.12E-04
0.950	1.50133	2.10E-04
0.955	1.50273	2.06E-04
0.960	1.50141	2.03E-04
0.965	1.50281	2.00E-04
0.970	1.50491	1.96E-04
0.975	1.50460	1.93E-04
0.980	1.49937	1.89E-04
0.985	1.50413	1.86E-04
0.990	1.50008	1.83E-04
0.995	1.50367	1.80E-04
1.000	1.50234	1.77E-04
1.005	1.50359	1.74E-04
1.010	1.50445	1.72E-04
1.015	1.50250	1.69E-04
1.020	1.50219	1.67E-04
1.025	1.50421	1.65E-04
1.030	1.50390	1.63E-04
1.035	1.50226	1.61E-04
1.040	1.50164	1.60E-04
1.045	1.50219	1.59E-04
1.050	1.50250	1.58E-04
1.055	1.50250	1.57E-04
1.060	1.50242	1.57E-04
1.065	1.50156	1.57E-04
1.070	1.50265	1.57E-04
1.075	1.50320	1.57E-04
1.080	1.50156	1.58E-04
1.085	1.50125	1.58E-04
1.090	1.50133	1.59E-04
1.095	1.50055	1.61E-04
1.100	1.50265	1.62E-04
1.105	1.50117	1.64E-04
1.110	1.50102	1.65E-04
1.115	1.50437	1.67E-04
1.120	1.50016	1.70E-04
1.125	1.50039	1.72E-04
1.130	1.50382	1.75E-04
1.135	1.50047	1.78E-04
1.140	1.49922	1.80E-04
1.145	1.50055	1.83E-04
1.150	1.50187	1.87E-04
1.155	1.49883	1.90E-04
1.160	1.50031	1.94E-04
1.165	1.50117	1.97E-04
1.170	1.50148	2.01E-04
1.175	1.50094	2.05E-04
1.180	1.49969	2.09E-04
1.185	1.50023	2.13E-04
1.190	1.50273	2.17E-04
1.195	1.50031	2.21E-04
1.200	1.50086	2.25E-04
1.205	1.50195	2.29E-04
1.210	1.49812	2.33E-04
1.215	1.50078	2.37E-04
1.220	1.50055	2.42E-04
1.225	1.49820	2.45E-04
1.230	1.50141	2.49E-04
1.235	1.49585	2.54E-04
1.240	1.49953	2.57E-04
1.245	1.50000	2.61E-04
1.250	1.49765	2.65E-04
1.255	1.50008	2.68E-04
1.260	1.49953	2.72E-04
1.265	1.50023	2.75E-04
1.270	1.49812	2.79E-04
1.275	1.49945	2.82E-04
1.280	1.49546	2.85E-04
1.285	1.49750	2.88E-04
1.290	1.49797	2.91E-04
1.295	1.49836	2.93E-04
1.300	1.49898	2.96E-04
1.305	1.50031	2.98E-04
1.310	1.49937	3.00E-04
1.315	1.50086	3.02E-04
1.320	1.49781	3.04E-04
1.325	1.50023	3.05E-04
1.330	1.50039	3.07E-04
1.335	1.49930	3.09E-04
1.340	1.49773	3.10E-04
1.345	1.49977	3.12E-04
1.350	1.49805	3.13E-04
1.355	1.49969	3.13E-04
1.360	1.49851	3.15E-04
1.365	1.49797	3.16E-04
1.370	1.49875	3.17E-04
1.375	1.49491	3.19E-04
1.380	1.49765	3.20E-04
1.385	1.49812	3.21E-04
1.390	1.49781	3.21E-04
1.395	1.49758	3.23E-04
1.400	1.49664	3.24E-04
1.405	1.49656	3.25E-04
1.410	1.49718	3.26E-04
1.415	1.49656	3.28E-04
1.420	1.49734	3.29E-04
1.425	1.49507	3.30E-04
1.430	1.49742	3.31E-04
1.435	1.49679	3.32E-04
1.440	1.49538	3.33E-04
1.445	1.49671	3.34E-04
1.450	1.49570	3.36E-04
1.455	1.49891	3.37E-04
1.460	1.49648	3.38E-04
1.465	1.49570	3.39E-04
1.470	1.49718	3.40E-04
1.475	1.49530	3.42E-04
1.480	1.49562	3.42E-04
1.485	1.49703	3.44E-04
1.490	1.49750	3.45E-04
1.495	1.49546	3.46E-04
1.500	1.49859	3.47E-04
1.505	1.49718	3.48E-04
1.510	1.49765	3.48E-04
1.515	1.49444	3.49E-04
1.520	1.49781	3.49E-04
1.525	1.49570	3.50E-04
1.530	1.49679	3.50E-04
1.535	1.49460	3.51E-04
1.540	1.49609	3.51E-04
1.545	1.49413	3.51E-04
1.550	1.49805	3.52E-04
1.555	1.49664	3.53E-04
1.560	1.49475	3.52E-04
1.565	1.49530	3.53E-04
1.570	1.49303	3.53E-04
1.575	1.49413	3.53E-04
1.580	1.49703	3.53E-04
1.585	1.49577	3.53E-04
1.590	1.49577	3.54E-04
1.595	1.49468	3.53E-04
1.600	1.49648	3.54E-04
1.605	1.49593	3.54E-04
1.610	1.49381	3.54E-04
1.615	1.49350	3.54E-04
1.620	1.49413	3.55E-04
1.625	1.49585	3.55E-04
1.630	1.49609	3.55E-04
1.635	1.49538	3.55E-04
1.640	1.49499	3.56E-04
1.645	1.49153	3.56E-04
1.650	1.49475	3.57E-04
1.655	1.49389	3.57E-04
1.660	1.49499	3.58E-04
1.665	1.49679	3.59E-04
1.670	1.49248	3.60E-04
1.675	1.49122	3.61E-04
1.680	1.49193	3.61E-04
1.685	1.49263	3.62E-04
1.690	1.49114	3.63E-04
1.695	1.49185	3.64E-04
1.700	1.49240	3.65E-04
1.705	1.49405	3.67E-04
1.710	1.49318	3.68E-04
1.715	1.49279	3.69E-04
1.720	1.49185	3.70E-04
1.725	1.49303	3.72E-04
1.730	1.49366	3.72E-04
1.735	1.49350	3.74E-04
1.740	1.49366	3.76E-04
1.745	1.49051	3.77E-04
1.750	1.49090	3.78E-04
1.755	1.49130	3.80E-04
1.760	1.49263	3.80E-04
1.765	1.49193	3.82E-04
1.770	1.49397	3.83E-04
1.775	1.49004	3.85E-04
1.780	1.49240	3.86E-04
1.785	1.49256	3.87E-04
1.790	1.49177	3.88E-04
1.795	1.48996	3.90E-04
1.800	1.49004	3.90E-04
1.805	1.49161	3.91E-04
1.810	1.49138	3.92E-04
1.815	1.49373	3.93E-04
1.820	1.49027	3.94E-04
1.825	1.49106	3.95E-04
1.830	1.49224	3.96E-04
1.835	1.48996	3.96E-04
1.840	1.49224	3.96E-04
1.845	1.49271	3.97E-04
1.850	1.49004	3.97E-04
1.855	1.49145	3.98E-04
1.860	1.48838	3.99E-04
1.865	1.48878	3.99E-04
1.870	1.48854	3.99E-04
1.875	1.48964	3.99E-04
1.880	1.49035	3.99E-04
1.885	1.49027	3.99E-04
1.890	1.48988	3.99E-04
1.895	1.49035	3.99E-04
1.900	1.48949	3.99E-04
1.905	1.48870	3.98E-04
1.910	1.49043	3.98E-04
1.915	1.48949	3.97E-04
1.920	1.48964	3.98E-04
1.925	1.49004	3.97E-04
1.930	1.48657	3.96E-04
1.935	1.48901	3.96E-04
1.940	1.48949	3.95E-04
1.945	1.48744	3.95E-04
1.950	1.48886	3.94E-04
1.955	1.48964	3.93E-04
1.960	1.48957	3.92E-04
1.965	1.49075	3.92E-04
1.970	1.49027	3.90E-04
1.975	1.48783	3.90E-04
1.980	1.48617	3.89E-04
1.985	1.48988	3.87E-04
1.990	1.48988	3.87E-04
1.995	1.48822	3.86E-04
2.000	1.48838	3.85E-04
