Material: glass / isuzu / IUV360
Optical constants. Data kindly provided by Koichiro Ikeda, ISUZU GLASS LTD. Nov 2024. See also Isuzu Glass Products
Comments: UV transmitting filter, Visible absorbing filter (IUV series). Glass type: SiO2-K2O.
Specs: {"nd": 1.527, "Vd": 58.6, "density": 2600, "thermal_expansion": [{"temperature_range": "373 573", "value": "9.9-06"}], "transformation_temperature": 845, "durability": 3, "hardness": [{"type": "Knoop", "value": "5.50e9"}]}
wavelength (um)	n	k
0.200	1.69384	6.68E-05
0.205	1.63857	7.48E-05
0.210	1.63115	7.29E-05
0.215	1.63042	7.87E-05
0.220	1.61507	7.86E-05
0.225	1.61318	7.92E-05
0.230	1.60684	8.02E-05
0.235	1.60209	8.29E-05
0.240	1.59865	8.65E-05
0.245	1.59351	9.14E-05
0.250	1.59189	9.49E-05
0.255	1.58475	9.90E-05
0.260	1.58371	1.01E-04
0.265	1.58046	1.03E-04
0.270	1.57853	1.01E-04
0.275	1.57646	8.42E-05
0.280	1.57468	6.14E-05
0.285	1.57171	4.30E-05
0.290	1.57066	3.01E-05
0.295	1.56932	2.08E-05
0.300	1.56336	1.44E-05
0.305	1.56589	1.01E-05
0.310	1.56246	7.05E-06
0.315	1.56036	5.07E-06
0.320	1.55729	3.73E-06
0.325	1.55774	2.69E-06
0.330	1.55646	2.07E-06
0.335	1.55549	1.59E-06
0.340	1.55429	1.26E-06
0.345	1.55368	1.05E-06
0.350	1.55316	8.96E-07
0.355	1.55203	8.04E-07
0.360	1.54962	7.36E-07
0.365	1.54954	7.74E-07
0.370	1.54841	8.71E-07
0.375	1.54849	1.06E-06
0.380	1.54720	1.41E-06
0.385	1.54668	1.97E-06
0.390	1.54524	2.98E-06
0.395	1.54516	4.66E-06
0.400	1.54433	7.30E-06
0.405	1.54380	1.12E-05
0.410	1.54259	1.65E-05
0.415	1.54161	2.34E-05
0.420	1.54077	3.19E-05
0.425	1.54039	4.19E-05
0.430	1.53994	5.32E-05
0.435	1.53903	6.55E-05
0.440	1.53872	7.83E-05
0.445	1.53827	9.11E-05
0.450	1.53796	1.04E-04
0.455	1.53720	1.16E-04
0.460	1.53667	1.27E-04
0.465	1.53637	1.38E-04
0.470	1.53614	1.49E-04
0.475	1.53523	1.60E-04
0.480	1.53469	1.71E-04
0.485	1.53431	1.81E-04
0.490	1.53363	1.91E-04
0.495	1.53309	1.99E-04
0.500	1.53271	2.07E-04
0.505	1.53226	2.13E-04
0.510	1.53180	2.21E-04
0.515	1.53172	2.28E-04
0.520	1.53103	2.35E-04
0.525	1.53081	2.42E-04
0.530	1.53050	2.48E-04
0.535	1.53004	2.53E-04
0.540	1.52981	2.59E-04
0.545	1.52951	2.61E-04
0.550	1.52928	2.61E-04
0.555	1.52943	2.63E-04
0.560	1.52905	2.63E-04
0.565	1.52867	2.62E-04
0.570	1.52821	2.65E-04
0.575	1.52767	2.67E-04
0.580	1.52783	2.69E-04
0.585	1.52737	2.72E-04
0.590	1.52729	2.74E-04
0.595	1.52698	2.72E-04
0.600	1.52683	2.70E-04
0.605	1.52675	2.68E-04
0.610	1.52614	2.69E-04
0.615	1.52622	2.66E-04
0.620	1.52591	2.66E-04
0.625	1.52576	2.65E-04
0.630	1.52568	2.63E-04
0.635	1.52538	2.63E-04
0.640	1.52545	2.61E-04
0.645	1.52522	2.58E-04
0.650	1.52507	2.56E-04
0.655	1.52515	2.52E-04
0.660	1.52484	2.54E-04
0.665	1.52423	2.57E-04
0.670	1.52323	2.51E-04
0.675	1.52307	2.28E-04
0.680	1.52307	1.90E-04
0.685	1.52300	1.48E-04
0.690	1.52307	1.12E-04
0.695	1.52238	8.51E-05
0.700	1.52261	6.57E-05
0.705	1.52246	5.18E-05
0.710	1.52246	4.16E-05
0.715	1.52261	3.41E-05
0.720	1.52261	2.83E-05
0.725	1.52215	2.36E-05
0.730	1.52215	1.95E-05
0.735	1.52208	1.59E-05
0.740	1.52138	1.31E-05
0.745	1.52192	1.12E-05
0.750	1.52192	1.05E-05
0.755	1.52123	1.11E-05
0.760	1.52077	1.30E-05
0.765	1.52123	1.55E-05
0.770	1.52115	1.73E-05
0.775	1.52123	1.73E-05
0.780	1.52115	1.57E-05
0.785	1.52131	1.35E-05
0.790	1.52062	1.18E-05
0.795	1.52092	1.09E-05
0.800	1.52123	1.05E-05
0.805	1.52077	1.06E-05
0.810	1.52069	1.09E-05
0.815	1.52008	1.13E-05
0.820	1.51985	1.19E-05
0.825	1.51977	1.26E-05
0.830	1.51923	1.33E-05
0.835	1.52023	1.41E-05
0.840	1.51900	1.50E-05
0.845	1.52038	1.58E-05
0.850	1.50608	1.71E-05
0.855	1.49945	1.84E-05
0.860	1.50062	1.94E-05
0.865	1.50180	2.04E-05
0.870	1.50203	2.15E-05
0.875	1.50133	2.26E-05
0.880	1.49906	2.36E-05
0.885	1.49906	2.47E-05
0.890	1.50008	2.58E-05
0.895	1.50180	2.70E-05
0.900	1.50226	2.82E-05
0.905	1.50172	2.94E-05
0.910	1.50281	3.06E-05
0.915	1.50351	3.19E-05
0.920	1.50297	3.32E-05
0.925	1.50328	3.46E-05
0.930	1.50367	3.60E-05
0.935	1.49984	3.75E-05
0.940	1.50125	3.89E-05
0.945	1.49906	4.04E-05
0.950	1.49937	4.20E-05
0.955	1.50109	4.36E-05
0.960	1.50406	4.51E-05
0.965	1.50312	4.69E-05
0.970	1.50133	4.86E-05
0.975	1.50195	5.05E-05
0.980	1.50367	5.22E-05
0.985	1.50390	5.40E-05
0.990	1.50421	5.60E-05
0.995	1.50000	5.81E-05
1.000	1.50304	6.01E-05
1.005	1.50031	6.21E-05
1.010	1.50117	6.43E-05
1.015	1.50031	6.66E-05
1.020	1.50476	6.87E-05
1.025	1.50062	7.11E-05
1.030	1.50156	7.34E-05
1.035	1.50039	7.58E-05
1.040	1.50234	7.80E-05
1.045	1.50086	8.05E-05
1.050	1.49836	8.29E-05
1.055	1.50125	8.53E-05
1.060	1.50203	8.76E-05
1.065	1.50008	9.00E-05
1.070	1.50102	9.24E-05
1.075	1.49875	9.48E-05
1.080	1.50125	9.70E-05
1.085	1.49961	9.93E-05
1.090	1.50219	1.02E-04
1.095	1.50055	1.04E-04
1.100	1.49969	1.06E-04
1.105	1.50023	1.08E-04
1.110	1.49984	1.10E-04
1.115	1.49961	1.12E-04
1.120	1.50047	1.13E-04
1.125	1.50156	1.15E-04
1.130	1.50086	1.17E-04
1.135	1.50062	1.19E-04
1.140	1.50164	1.20E-04
1.145	1.50086	1.22E-04
1.150	1.50070	1.23E-04
1.155	1.49992	1.24E-04
1.160	1.49797	1.25E-04
1.165	1.50062	1.27E-04
1.170	1.49820	1.28E-04
1.175	1.49969	1.29E-04
1.180	1.50008	1.30E-04
1.185	1.50125	1.31E-04
1.190	1.49883	1.32E-04
1.195	1.49898	1.32E-04
1.200	1.49937	1.33E-04
1.205	1.49984	1.34E-04
1.210	1.49945	1.35E-04
1.215	1.49875	1.35E-04
1.220	1.49750	1.36E-04
1.225	1.49898	1.37E-04
1.230	1.50023	1.37E-04
1.235	1.49805	1.38E-04
1.240	1.50031	1.38E-04
1.245	1.49805	1.39E-04
1.250	1.49875	1.39E-04
1.255	1.49773	1.40E-04
1.260	1.49538	1.40E-04
1.265	1.49726	1.40E-04
1.270	1.49930	1.40E-04
1.275	1.49765	1.40E-04
1.280	1.49562	1.41E-04
1.285	1.49859	1.40E-04
1.290	1.49718	1.40E-04
1.295	1.50086	1.40E-04
1.300	1.49773	1.40E-04
1.305	1.49797	1.39E-04
1.310	1.49711	1.39E-04
1.315	1.49812	1.39E-04
1.320	1.49546	1.38E-04
1.325	1.50031	1.37E-04
1.330	1.49648	1.37E-04
1.335	1.49624	1.36E-04
1.340	1.49711	1.36E-04
1.345	1.49789	1.35E-04
1.350	1.49648	1.35E-04
1.355	1.49624	1.34E-04
1.360	1.49750	1.34E-04
1.365	1.49632	1.34E-04
1.370	1.49475	1.34E-04
1.375	1.49585	1.34E-04
1.380	1.49679	1.34E-04
1.385	1.49656	1.34E-04
1.390	1.49350	1.35E-04
1.395	1.49373	1.36E-04
1.400	1.49640	1.36E-04
1.405	1.49664	1.37E-04
1.410	1.49538	1.39E-04
1.415	1.49671	1.40E-04
1.420	1.49609	1.41E-04
1.425	1.49593	1.42E-04
1.430	1.49679	1.43E-04
1.435	1.49671	1.45E-04
1.440	1.49570	1.47E-04
1.445	1.49640	1.48E-04
1.450	1.49617	1.50E-04
1.455	1.49601	1.52E-04
1.460	1.49530	1.53E-04
1.465	1.49460	1.55E-04
1.470	1.49859	1.56E-04
1.475	1.49413	1.58E-04
1.480	1.49624	1.59E-04
1.485	1.49444	1.60E-04
1.490	1.49538	1.62E-04
1.495	1.49601	1.63E-04
1.500	1.49421	1.64E-04
1.505	1.49421	1.65E-04
1.510	1.49491	1.65E-04
1.515	1.49366	1.66E-04
1.520	1.49523	1.66E-04
1.525	1.49436	1.67E-04
1.530	1.49428	1.67E-04
1.535	1.49271	1.67E-04
1.540	1.49585	1.67E-04
1.545	1.49515	1.67E-04
1.550	1.49562	1.68E-04
1.555	1.49523	1.68E-04
1.560	1.49475	1.67E-04
1.565	1.49499	1.67E-04
1.570	1.49452	1.67E-04
1.575	1.49397	1.67E-04
1.580	1.49468	1.67E-04
1.585	1.49632	1.66E-04
1.590	1.49366	1.66E-04
1.595	1.49460	1.66E-04
1.600	1.49240	1.66E-04
1.605	1.49326	1.66E-04
1.610	1.49421	1.66E-04
1.615	1.49358	1.66E-04
1.620	1.49326	1.67E-04
1.625	1.49491	1.67E-04
1.630	1.49350	1.67E-04
1.635	1.49193	1.68E-04
1.640	1.49342	1.69E-04
1.645	1.49130	1.69E-04
1.650	1.49303	1.70E-04
1.655	1.49279	1.71E-04
1.660	1.49193	1.72E-04
1.665	1.49177	1.73E-04
1.670	1.49358	1.74E-04
1.675	1.49224	1.75E-04
1.680	1.49295	1.76E-04
1.685	1.49350	1.78E-04
1.690	1.49098	1.79E-04
1.695	1.48964	1.80E-04
1.700	1.49201	1.81E-04
1.705	1.48988	1.83E-04
1.710	1.49208	1.84E-04
1.715	1.48988	1.86E-04
1.720	1.49138	1.87E-04
1.725	1.49256	1.88E-04
1.730	1.49224	1.89E-04
1.735	1.49051	1.91E-04
1.740	1.49122	1.92E-04
1.745	1.49051	1.93E-04
1.750	1.49460	1.94E-04
1.755	1.49130	1.95E-04
1.760	1.48996	1.96E-04
1.765	1.49004	1.97E-04
1.770	1.49169	1.98E-04
1.775	1.49169	1.98E-04
1.780	1.49153	1.99E-04
1.785	1.49020	1.99E-04
1.790	1.49145	2.00E-04
1.795	1.49208	2.00E-04
1.800	1.49130	2.00E-04
1.805	1.48988	2.01E-04
1.810	1.49043	2.01E-04
1.815	1.48957	2.01E-04
1.820	1.49059	2.01E-04
1.825	1.49106	2.01E-04
1.830	1.48917	2.01E-04
1.835	1.48838	2.00E-04
1.840	1.48996	2.00E-04
1.845	1.48633	2.00E-04
1.850	1.48759	2.00E-04
1.855	1.48807	1.99E-04
1.860	1.48807	1.99E-04
1.865	1.49035	1.99E-04
1.870	1.48909	1.98E-04
1.875	1.48838	1.98E-04
1.880	1.48941	1.97E-04
1.885	1.48736	1.97E-04
1.890	1.48949	1.97E-04
1.895	1.48783	1.97E-04
1.900	1.48862	1.96E-04
1.905	1.48822	1.96E-04
1.910	1.48767	1.95E-04
1.915	1.48917	1.95E-04
1.920	1.48822	1.95E-04
1.925	1.48830	1.95E-04
1.930	1.48617	1.94E-04
1.935	1.48909	1.94E-04
1.940	1.48830	1.94E-04
1.945	1.48901	1.94E-04
1.950	1.48744	1.94E-04
1.955	1.48838	1.94E-04
1.960	1.48886	1.94E-04
1.965	1.48957	1.94E-04
1.970	1.48704	1.94E-04
1.975	1.48886	1.94E-04
1.980	1.48767	1.94E-04
1.985	1.48751	1.94E-04
1.990	1.48822	1.94E-04
1.995	1.48791	1.94E-04
2.000	1.48767	1.94E-04
