Material: main / ZnSe / Pigeon
Optical constants. J. J. Pigeon, D. A. Matteo, S. Ya. Tochitsky, I. Ben-Zvi, C. Joshi. Measurements of the nonlinear refractive index of AgGaSe2, GaSe, and ZnSe at 10 Âµm. J. Opt. Soc. Am. B 37, 2076 (2020)
Comments: 300 ns. Four-wave mixing. Relative measurement (to GaAs). The authors mistakenly used an incorrect value of n2 of GaAs when converting a relative measurement to an absolute value. They used 4.0e-19 cm2/W instead of 4.0e-14 cm2/W, which was cited earlier in the same paper. The database now includes a recalculated value using n2(GaAs) = 4.0e-14 cm2/W.
Specs: {"n2_method": "FWM", "pulse_duration": "300e-9"}
wavelength (um)	n	2
10.6	1.2e-18
