Material: organic / (C2H6OSi)n - polydimethylsiloxane / Gupta-UV
Optical constants. V. Gupta, P. T. Probst, F. R. Goßler, A. M. Steiner, J. Schubert, Y. Brasse, T. A. F. König, A. Fery. Mechanotunable surface lattice resonances in the visible optical range by soft lithography templates and directed self-assembly, ACS Appl. Mater. Interfaces 11, 28189-28196 (2019)(Numerical data kindly provided by Tobias König)
Comments: Ultra violet (UV) curable Polydimethylphenylsiloxane (PDMS) substrate
wavelength (um)	n
0.300	1.46146
0.302	1.46069
0.304	1.45993
0.306	1.45918
0.308	1.45845
0.310	1.45773
0.312	1.45702
0.314	1.45633
0.316	1.45565
0.318	1.45498
0.320	1.45432
0.322	1.45367
0.324	1.45303
0.326	1.45241
0.328	1.45179
0.330	1.45119
0.332	1.45059
0.334	1.45001
0.336	1.44943
0.338	1.44886
0.340	1.44831
0.342	1.44776
0.344	1.44722
0.346	1.44669
0.348	1.44616
0.350	1.44565
0.352	1.44515
0.354	1.44465
0.356	1.44416
0.358	1.44368
0.360	1.44320
0.362	1.44273
0.364	1.44227
0.366	1.44182
0.368	1.44137
0.370	1.44093
0.372	1.44050
0.374	1.44007
0.376	1.43965
0.378	1.43924
0.380	1.43883
0.382	1.43843
0.384	1.43804
0.386	1.43765
0.388	1.43726
0.390	1.43688
0.392	1.43651
0.394	1.43614
0.396	1.43578
0.398	1.43542
0.400	1.43507
0.402	1.43472
0.404	1.43438
0.406	1.43404
0.408	1.43371
0.410	1.43338
0.412	1.43306
0.414	1.43274
0.416	1.43242
0.418	1.43211
0.420	1.43180
0.422	1.43150
0.424	1.43120
0.426	1.43091
0.428	1.43062
0.430	1.43033
0.432	1.43005
0.434	1.42977
0.436	1.42950
0.438	1.42922
0.440	1.42896
0.442	1.42869
0.444	1.42843
0.446	1.42817
0.448	1.42792
0.450	1.42767
0.452	1.42742
0.454	1.42717
0.456	1.42693
0.458	1.42669
0.460	1.42646
0.462	1.42622
0.464	1.42599
0.466	1.42576
0.468	1.42554
0.470	1.42532
0.472	1.42510
0.474	1.42488
0.476	1.42467
0.478	1.42446
0.480	1.42425
0.482	1.42404
0.484	1.42384
0.486	1.42364
0.488	1.42344
0.490	1.42324
0.492	1.42305
0.494	1.42286
0.496	1.42267
0.498	1.42248
0.500	1.42230
0.502	1.42211
0.504	1.42193
0.506	1.42175
0.508	1.42158
0.510	1.42140
0.512	1.42123
0.514	1.42106
0.516	1.42089
0.518	1.42072
0.520	1.42056
0.522	1.42039
0.524	1.42023
0.526	1.42007
0.528	1.41991
0.530	1.41976
0.532	1.41960
0.534	1.41945
0.536	1.41930
0.538	1.41915
0.540	1.41900
0.542	1.41885
0.544	1.41871
0.546	1.41857
0.548	1.41842
0.550	1.41828
0.552	1.41815
0.554	1.41801
0.556	1.41787
0.558	1.41774
0.560	1.41760
0.562	1.41747
0.564	1.41734
0.566	1.41721
0.568	1.41709
0.570	1.41696
0.572	1.41683
0.574	1.41671
0.576	1.41659
0.578	1.41647
0.580	1.41635
0.582	1.41623
0.584	1.41611
0.586	1.41599
0.588	1.41588
0.590	1.41576
0.592	1.41565
0.594	1.41554
0.596	1.41543
0.598	1.41532
0.600	1.41521
0.602	1.41510
0.604	1.41500
0.606	1.41489
0.608	1.41479
0.610	1.41468
0.612	1.41458
0.614	1.41448
0.616	1.41438
0.618	1.41428
0.620	1.41418
0.622	1.41408
0.624	1.41398
0.626	1.41389
0.628	1.41379
0.630	1.41370
0.632	1.41361
0.634	1.41351
0.636	1.41342
0.638	1.41333
0.640	1.41324
0.642	1.41315
0.644	1.41306
0.646	1.41298
0.648	1.41289
0.650	1.41280
0.652	1.41272
0.654	1.41263
0.656	1.41255
0.658	1.41247
0.660	1.41239
0.662	1.41230
0.664	1.41222
0.666	1.41214
0.668	1.41206
0.670	1.41199
0.672	1.41191
0.674	1.41183
0.676	1.41176
0.678	1.41168
0.680	1.41160
0.682	1.41153
0.684	1.41145
0.686	1.41138
0.688	1.41131
0.690	1.41124
0.692	1.41117
0.694	1.41110
0.696	1.41103
0.698	1.41096
0.700	1.41089
0.702	1.41082
0.704	1.41075
0.706	1.41068
0.708	1.41062
0.710	1.41055
0.712	1.41049
0.714	1.41042
0.716	1.41036
0.718	1.41029
0.720	1.41023
0.722	1.41016
0.724	1.41010
0.726	1.41004
0.728	1.40998
0.730	1.40992
0.732	1.40986
0.734	1.40980
0.736	1.40974
0.738	1.40968
0.740	1.40962
0.742	1.40956
0.744	1.40951
0.746	1.40945
0.748	1.40939
0.750	1.40933
0.752	1.40928
0.754	1.40922
0.756	1.40917
0.758	1.40911
0.760	1.40906
0.762	1.40901
0.764	1.40895
0.766	1.40890
0.768	1.40885
0.770	1.40880
0.772	1.40874
0.774	1.40869
0.776	1.40864
0.778	1.40859
0.780	1.40854
0.782	1.40849
0.784	1.40844
0.786	1.40839
0.788	1.40835
0.790	1.40830
0.792	1.40825
0.794	1.40820
0.796	1.40815
0.798	1.40811
0.800	1.40806
0.802	1.40801
0.804	1.40797
0.806	1.40792
0.808	1.40788
0.810	1.40783
0.812	1.40779
0.814	1.40775
0.816	1.40770
0.818	1.40766
0.820	1.40761
0.822	1.40757
0.824	1.40753
0.826	1.40749
0.828	1.40745
0.830	1.40740
0.832	1.40736
0.834	1.40732
0.836	1.40728
0.838	1.40724
0.840	1.40720
0.842	1.40716
0.844	1.40712
0.846	1.40708
0.848	1.40704
0.850	1.40700
0.852	1.40696
0.854	1.40693
0.856	1.40689
0.858	1.40685
0.860	1.40681
0.862	1.40678
0.864	1.40674
0.866	1.40670
0.868	1.40667
0.870	1.40663
0.872	1.40659
0.874	1.40656
0.876	1.40652
0.878	1.40649
0.880	1.40645
0.882	1.40642
0.884	1.40638
0.886	1.40635
0.888	1.40631
0.890	1.40628
0.892	1.40625
0.894	1.40621
0.896	1.40618
0.898	1.40615
0.900	1.40611
