Material: organic / (C2H6OSi)n - polydimethylsiloxane / Gupta
Optical constants. V. Gupta, P. T. Probst, F. R. Goßler, A. M. Steiner, J. Schubert, Y. Brasse, T. A. F. König, A. Fery. Mechanotunable surface lattice resonances in the visible optical range by soft lithography templates and directed self-assembly, ACS Appl. Mater. Interfaces 11, 28189-28196 (2019)(Numerical data kindly provided by Tobias König)
Comments: Polydimethylphenylsiloxane (PDMS) substrate. Hardner (Sylgard 184) to PDMS ratio is 1 to 10.
wavelength (um)	n
0.3000	1.452598
0.3030	1.451181
0.3060	1.449823
0.3090	1.448519
0.3120	1.447268
0.3150	1.446066
0.3180	1.444912
0.3210	1.443803
0.3240	1.442736
0.3270	1.441710
0.3300	1.440722
0.3330	1.439771
0.3360	1.438855
0.3390	1.437972
0.3420	1.437120
0.3450	1.436299
0.3480	1.435507
0.3510	1.434743
0.3540	1.434005
0.3570	1.433292
0.3600	1.432603
0.3630	1.431937
0.3660	1.431293
0.3690	1.430670
0.3720	1.430067
0.3750	1.429484
0.3780	1.428919
0.3810	1.428372
0.3840	1.427842
0.3870	1.427328
0.3900	1.426831
0.3930	1.426348
0.3960	1.425879
0.3990	1.425425
0.4020	1.424984
0.4050	1.424555
0.4080	1.424139
0.4110	1.423735
0.4140	1.423343
0.4170	1.422961
0.4200	1.422591
0.4230	1.422230
0.4260	1.421879
0.4290	1.421538
0.4320	1.421206
0.4350	1.420883
0.4380	1.420568
0.4410	1.420262
0.4440	1.419964
0.4470	1.419673
0.4500	1.419390
0.4530	1.419114
0.4560	1.418844
0.4590	1.418582
0.4620	1.418326
0.4650	1.418076
0.4680	1.417833
0.4710	1.417595
0.4740	1.417363
0.4770	1.417137
0.4800	1.416916
0.4830	1.416700
0.4860	1.416489
0.4890	1.416283
0.4920	1.416081
0.4950	1.415884
0.4980	1.415692
0.5010	1.415504
0.5040	1.415320
0.5070	1.415141
0.5100	1.414965
0.5130	1.414793
0.5160	1.414624
0.5190	1.414459
0.5220	1.414298
0.5250	1.414140
0.5280	1.413986
0.5310	1.413835
0.5340	1.413686
0.5370	1.413541
0.5400	1.413399
0.5430	1.413260
0.5460	1.413123
0.5490	1.412990
0.5520	1.412858
0.5550	1.412730
0.5580	1.412604
0.5610	1.412480
0.5640	1.412359
0.5670	1.412240
0.5700	1.412124
0.5730	1.412009
0.5760	1.411897
0.5790	1.411787
0.5820	1.411679
0.5850	1.411573
0.5880	1.411469
0.5910	1.411366
0.5940	1.411266
0.5970	1.411168
0.6000	1.411071
0.6030	1.410976
0.6060	1.410882
0.6090	1.410790
0.6120	1.410700
0.6150	1.410612
0.6180	1.410525
0.6210	1.410439
0.6240	1.410355
0.6270	1.410272
0.6300	1.410191
0.6330	1.410111
0.6360	1.410032
0.6390	1.409955
0.6420	1.409879
0.6450	1.409804
0.6480	1.409731
0.6510	1.409658
0.6540	1.409587
0.6570	1.409517
0.6600	1.409448
0.6630	1.409380
0.6660	1.409314
0.6690	1.409248
0.6720	1.409183
0.6750	1.409119
0.6780	1.409057
0.6810	1.408995
0.6840	1.408934
0.6870	1.408874
0.6900	1.408815
0.6930	1.408757
0.6960	1.408700
0.6990	1.408643
0.7020	1.408588
0.7050	1.408533
0.7080	1.408479
0.7110	1.408426
0.7140	1.408374
0.7170	1.408322
0.7200	1.408271
0.7230	1.408221
0.7260	1.408172
0.7290	1.408123
0.7320	1.408075
0.7350	1.408028
0.7380	1.407981
0.7410	1.407935
0.7440	1.407889
0.7470	1.407844
0.7500	1.407800
0.7530	1.407757
0.7560	1.407714
0.7590	1.407671
0.7620	1.407629
0.7650	1.407588
0.7680	1.407547
0.7710	1.407507
0.7740	1.407467
0.7770	1.407428
0.7800	1.407390
0.7830	1.407351
0.7860	1.407314
0.7890	1.407277
0.7920	1.407240
0.7950	1.407204
0.7980	1.407168
0.8010	1.407133
0.8040	1.407098
0.8070	1.407063
0.8100	1.407029
0.8130	1.406996
0.8160	1.406962
0.8190	1.406930
0.8220	1.406897
0.8250	1.406865
0.8280	1.406834
0.8310	1.406803
0.8340	1.406772
0.8370	1.406741
0.8400	1.406711
0.8430	1.406681
0.8460	1.406652
0.8490	1.406623
0.8520	1.406594
0.8550	1.406566
0.8580	1.406538
0.8610	1.406510
0.8640	1.406483
0.8670	1.406456
0.8700	1.406429
0.8730	1.406403
0.8760	1.406376
0.8790	1.406351
0.8820	1.406325
0.8850	1.406300
0.8880	1.406275
0.8910	1.406250
0.8940	1.406226
0.8970	1.406201
0.9000	1.406178
0.9030	1.406154
0.9060	1.406131
0.9090	1.406107
0.9120	1.406085
0.9150	1.406062
0.9180	1.406040
0.9210	1.406017
0.9240	1.405995
0.9270	1.405974
0.9300	1.405952
0.9330	1.405931
0.9360	1.405910
0.9390	1.405890
0.9420	1.405869
0.9450	1.405849
0.9480	1.405828
0.9510	1.405809
0.9540	1.405789
0.9570	1.405769
0.9600	1.405750
0.9630	1.405731
0.9660	1.405712
0.9690	1.405693
0.9720	1.405675
0.9750	1.405656
0.9780	1.405638
0.9810	1.405620
0.9840	1.405602
0.9870	1.405585
0.9900	1.405567
0.9930	1.405550
0.9960	1.405533
0.9990	1.405516
1.0050	1.405483
1.0125	1.405442
1.0200	1.405402
1.0275	1.405363
1.0350	1.405325
1.0425	1.405288
1.0500	1.405252
1.0575	1.405216
1.0650	1.405181
1.0725	1.405148
1.0800	1.405114
1.0875	1.405082
1.0950	1.405050
1.1025	1.405019
1.1100	1.404989
1.1175	1.404960
1.1250	1.404930
1.1325	1.404902
1.1400	1.404874
1.1475	1.404847
1.1550	1.404820
1.1625	1.404794
1.1700	1.404769
1.1775	1.404744
1.1850	1.404719
1.1925	1.404695
1.2000	1.404672
1.2075	1.404648
1.2150	1.404626
1.2225	1.404603
1.2300	1.404582
1.2375	1.404560
1.2450	1.404539
1.2525	1.404519
1.2600	1.404499
1.2675	1.404479
1.2750	1.404459
1.2825	1.404440
1.2900	1.404422
1.2975	1.404403
1.3050	1.404385
1.3125	1.404367
1.3200	1.404350
1.3275	1.404333
1.3350	1.404316
1.3425	1.404300
1.3500	1.404283
1.3575	1.404268
1.3650	1.404252
1.3725	1.404236
1.3800	1.404221
1.3875	1.404207
1.3950	1.404192
1.4025	1.404178
1.4100	1.404163
1.4175	1.404149
1.4250	1.404136
1.4325	1.404122
1.4400	1.404109
1.4475	1.404096
1.4550	1.404083
1.4625	1.404071
1.4700	1.404058
1.4775	1.404046
1.4850	1.404034
1.4925	1.404022
1.5000	1.404011
1.5075	1.403999
1.5150	1.403988
1.5225	1.403977
1.5300	1.403966
1.5375	1.403955
1.5450	1.403944
1.5525	1.403934
1.5600	1.403924
1.5675	1.403914
1.5750	1.403904
1.5825	1.403894
1.5900	1.403884
1.5975	1.403875
1.6050	1.403865
1.6125	1.403856
1.6200	1.403847
1.6275	1.403838
1.6350	1.403829
1.6425	1.403820
1.6500	1.403811
1.6575	1.403803
1.6650	1.403795
1.6725	1.403786
1.6800	1.403778
1.6875	1.403770
