Material: glass / hikari / E-F3
Optical constants. NIKON Zemax catalog 2017-11 (obtained from http://www.nikon.com)See also HIKARI glass data sheets
Specs: {"temperature": 296, "nd": 1.61293, "Vd": 36.996203, "glass_status": "preferred", "density": 2670, "thermal_expansion": [{"temperature_range": "243 343", "value": 8.3e-06}], "dPgF": -0.0004}
Dispersion formula 3, range 0.4 0.7 um, coefficients 2.52228312 -0.00104823034 2 0.029395765 -2 -0.00139163033 -4 0.000289680505 -6 -1.26508887e-05 -8
wavelength (um)	k
0.400	-0.0000E+00
0.700	-0.0000E+00
