Material: glass / ohara / NSL2
Optical constants. OHARA Zemax catalog 2017-11-30 (obtained from http://www.ohara-inc.co.jp)See also OHARA glass data sheets
Specs: {"n_absolute": false, "wavelength_vacuum": false, "temperature": "25.0 °C", "thermal_dispersion": [{"type": "Schott formula", "coefficients": "3.4466e-06 0.0 0.0 0.0 0.0 0.0"}], "nd": 1.516016, "Vd": 56.800755, "glass_code": 516568, "glass_status": "preferred", "density": "2.59 g/cm3", "thermal_expansion": [{"temperature_range": "-30 70 °C", "coefficient": "7.6e-06 K-1"}, {"temperature_range": "20 300 °C", "coefficient": "9e-06 K-1"}], "dPgF": -0.0033}
Dispersion formula 3, range 0.365 0.9 um, coefficients 2.264123 -0.008475121 2 0.01223501 -2 0.0001944071 -4 3.353212e-07 -6 3.831994e-07 -8
wavelength (um)	k
0.340	1.7895E-07
0.350	8.7708E-08
0.360	4.6207E-08
0.370	3.2567E-08
0.380	3.6507E-08
0.390	1.8677E-08
0.400	1.2758E-08
0.420	1.6753E-08
0.440	1.7551E-08
0.460	1.4672E-08
0.480	1.5310E-08
0.500	1.1955E-08
0.550	1.3150E-08
0.600	1.4345E-08
0.650	2.0732E-08
0.700	2.2326E-08
0.800	1.9127E-08
0.900	2.1877E-08
