Material: main / Au / Klinavicius-40.0nm
Optical constants. T. Klinavičius, A. Tamulevičienė, T. Tamulevičius. How to select the proper gold permittivity for generating training data for deep neural networks for analysis of the nanoparticle colloid size distributions from their UV–Vis–NIR extinction spectra? J. Phys. Chem. C 129, 17616-17631 (2025) (See Supporting information)
Comments: 40.0 nm average radius chemically synthesized spherical gold nanoparticles. Samples were prepared for imaging by drop casting sonicated and then centrifuged colloids on a cleaned silicon substrate and dried at a 4 °C temperature.
Conditions: {"substrate": "Si"}
wavelength (um)	n	k
0.400	1.5745904	1.8914510
0.402	1.5767368	1.8901944
0.404	1.5786531	1.8885046
0.406	1.5803289	1.8863968
0.408	1.5817523	1.8838887
0.410	1.5829099	1.8810000
0.412	1.5837867	1.8777526
0.414	1.5843665	1.8741708
0.416	1.5846312	1.8702811
0.418	1.5845613	1.8661121
0.420	1.5841357	1.8616948
0.422	1.5833319	1.8570620
0.424	1.5821260	1.8522487
0.426	1.5804927	1.8472917
0.428	1.5784056	1.8422299
0.430	1.5758371	1.8371037
0.432	1.5727587	1.8319551
0.434	1.5691412	1.8268279
0.436	1.5649549	1.8217668
0.438	1.5601698	1.8168181
0.440	1.5547560	1.8120290
0.442	1.5486837	1.8074477
0.444	1.5419239	1.8031230
0.446	1.5344483	1.7991045
0.448	1.5262302	1.7954422
0.450	1.5172445	1.7921863
0.452	1.5074679	1.7893872
0.454	1.4968801	1.7870953
0.456	1.4854633	1.7853607
0.458	1.4732033	1.7842329
0.460	1.4600894	1.7837609
0.462	1.4461154	1.7839928
0.464	1.4312794	1.7849754
0.466	1.4155846	1.7867542
0.468	1.3990395	1.7893728
0.470	1.3816580	1.7928726
0.472	1.3634603	1.7972927
0.474	1.3444722	1.8026689
0.476	1.3247258	1.8090339
0.478	1.3042594	1.8164162
0.480	1.2831174	1.8248400
0.482	1.2613500	1.8343246
0.484	1.2390129	1.8448838
0.486	1.2161670	1.8565256
0.488	1.1928776	1.8692514
0.490	1.1692138	1.8830562
0.492	1.1452477	1.8979279
0.494	1.1210535	1.9138475
0.496	1.0967064	1.9307889
0.498	1.0722818	1.9487190
0.500	1.0478540	1.9675982
0.502	1.0234956	1.9873810
0.504	0.9992761	2.0080160
0.506	0.9752615	2.0294474
0.508	0.9515134	2.0516152
0.510	0.9280883	2.0744564
0.512	0.9050373	2.0979060
0.514	0.8824061	2.1218978
0.516	0.8602343	2.1463652
0.518	0.8385558	2.1712423
0.520	0.8173989	2.1964648
0.522	0.7967863	2.2219702
0.524	0.7767358	2.2476989
0.526	0.7572603	2.2735944
0.528	0.7383683	2.2996041
0.530	0.7200644	2.3256791
0.532	0.7023498	2.3517745
0.534	0.6852225	2.3778500
0.536	0.6686778	2.4038691
0.538	0.6527090	2.4298000
0.540	0.6373073	2.4556147
0.542	0.6224624	2.4812894
0.544	0.6081626	2.5068039
0.546	0.5943955	2.5321419
0.548	0.5811476	2.5572904
0.550	0.5684051	2.5822394
0.552	0.5561537	2.6069820
0.554	0.5443788	2.6315140
0.556	0.5330660	2.6558334
0.558	0.5222005	2.6799405
0.560	0.5117680	2.7038374
0.562	0.5017540	2.7275281
0.564	0.4921444	2.7510177
0.566	0.4829254	2.7743129
0.568	0.4740835	2.7974211
0.570	0.4656055	2.8203509
0.572	0.4574784	2.8431111
0.574	0.4496899	2.8657116
0.576	0.4422278	2.8881620
0.578	0.4350803	2.9104728
0.580	0.4282361	2.9326540
0.582	0.4216841	2.9547159
0.584	0.4154137	2.9766688
0.586	0.4094146	2.9985226
0.588	0.4036768	3.0202870
0.590	0.3981908	3.0419715
0.592	0.3929471	3.0635851
0.594	0.3879369	3.0851365
0.596	0.3831515	3.1066338
0.598	0.3785824	3.1280848
0.600	0.3742217	3.1494968
0.602	0.3700614	3.1708766
0.604	0.3660941	3.1922305
0.606	0.3623124	3.2135643
0.608	0.3587093	3.2348832
0.610	0.3552779	3.2561921
0.612	0.3520117	3.2774954
0.614	0.3489044	3.2987971
0.616	0.3459497	3.3201005
0.618	0.3431417	3.3414088
0.620	0.3404747	3.3627246
0.622	0.3379432	3.3840502
0.624	0.3355418	3.4053876
0.626	0.3332652	3.4267384
0.628	0.3311086	3.4481039
0.630	0.3290671	3.4694852
0.632	0.3271361	3.4908830
0.634	0.3253110	3.5122977
0.636	0.3235876	3.5337298
0.638	0.3219616	3.5551793
0.640	0.3204290	3.5766461
0.642	0.3189860	3.5981299
0.644	0.3176289	3.6196303
0.646	0.3163540	3.6411468
0.648	0.3151578	3.6626786
0.650	0.3140371	3.6842249
0.652	0.3129887	3.7057849
0.654	0.3120094	3.7273576
0.656	0.3110964	3.7489418
0.658	0.3102469	3.7705365
0.660	0.3094580	3.7921405
0.662	0.3087272	3.8137524
0.664	0.3080520	3.8353711
0.666	0.3074301	3.8569951
0.668	0.3068590	3.8786231
0.670	0.3063368	3.9002536
0.672	0.3058612	3.9218853
0.674	0.3054303	3.9435166
0.676	0.3050422	3.9651462
0.678	0.3046950	3.9867724
0.680	0.3043871	4.0083938
0.682	0.3041167	4.0300089
0.684	0.3038824	4.0516161
0.686	0.3036826	4.0732138
0.688	0.3035159	4.0948006
0.690	0.3033810	4.1163748
0.692	0.3032765	4.1379350
0.694	0.3032014	4.1594795
0.696	0.3031543	4.1810067
0.698	0.3031343	4.2025151
0.700	0.3031403	4.2240032
0.702	0.3031713	4.2454692
0.704	0.3032264	4.2669117
0.706	0.3033048	4.2883291
0.708	0.3034055	4.3097197
0.710	0.3035279	4.3310820
0.712	0.3036713	4.3524144
0.714	0.3038348	4.3737153
0.716	0.3040180	4.3949831
0.718	0.3042201	4.4162163
0.720	0.3044406	4.4374132
0.722	0.3046790	4.4585722
0.724	0.3049348	4.4796918
0.726	0.3052074	4.5007703
0.728	0.3054966	4.5218062
0.730	0.3058018	4.5427978
0.732	0.3061228	4.5637436
0.734	0.3064590	4.5846420
0.736	0.3068103	4.6054913
0.738	0.3071763	4.6262900
0.740	0.3075567	4.6470365
0.742	0.3079513	4.6677292
0.744	0.3083598	4.6883665
0.746	0.3087820	4.7089468
0.748	0.3092177	4.7294685
0.750	0.3096668	4.7499300
0.752	0.3101290	4.7703297
0.754	0.3106042	4.7906660
0.756	0.3110922	4.8109374
0.758	0.3115930	4.8311422
0.760	0.3121064	4.8512788
0.762	0.3126324	4.8713457
0.764	0.3131707	4.8913413
0.766	0.3137215	4.9112639
0.768	0.3142845	4.9311120
0.770	0.3148597	4.9508841
0.772	0.3154472	4.9705784
0.774	0.3160468	4.9901935
0.776	0.3166584	5.0097278
0.778	0.3172822	5.0291797
0.780	0.3179181	5.0485476
0.782	0.3185660	5.0678300
0.784	0.3192260	5.0870252
0.786	0.3198980	5.1061318
0.788	0.3205821	5.1251481
0.790	0.3212783	5.1440727
0.792	0.3219866	5.1629039
0.794	0.3227071	5.1816402
0.796	0.3234397	5.2002800
0.798	0.3241845	5.2188219
0.800	0.3249415	5.2372643
0.802	0.3257109	5.2556056
0.804	0.3264925	5.2738443
0.806	0.3272865	5.2919790
0.808	0.3280930	5.3100080
0.810	0.3289119	5.3279299
0.812	0.3297434	5.3457432
0.814	0.3305875	5.3634463
0.816	0.3314442	5.3810378
0.818	0.3323137	5.3985162
0.820	0.3331961	5.4158800
0.822	0.3340913	5.4331278
0.824	0.3349995	5.4502580
0.826	0.3359207	5.4672692
0.828	0.3368551	5.4841599
0.830	0.3378026	5.5009288
0.832	0.3387635	5.5175743
0.834	0.3397378	5.5340951
0.836	0.3407256	5.5504897
0.838	0.3417269	5.5667566
0.840	0.3427419	5.5828946
0.842	0.3437707	5.5989022
0.844	0.3448133	5.6147779
0.846	0.3458699	5.6305205
0.848	0.3469406	5.6461286
0.850	0.3480255	5.6616008
0.852	0.3491247	5.6769357
0.854	0.3502382	5.6921320
0.856	0.3513663	5.7071884
0.858	0.3525090	5.7221036
0.860	0.3536664	5.7368762
0.862	0.3548387	5.7515050
0.864	0.3560260	5.7659887
0.866	0.3572284	5.7803259
0.868	0.3584460	5.7945155
0.870	0.3596789	5.8085561
0.872	0.3609274	5.8224466
0.874	0.3621914	5.8361856
0.876	0.3634712	5.8497721
0.878	0.3647668	5.8632047
0.880	0.3660785	5.8764823
0.882	0.3674063	5.8896037
0.884	0.3687504	5.9025678
0.886	0.3701109	5.9153733
0.888	0.3714880	5.9280192
0.890	0.3728818	5.9405043
0.892	0.3742925	5.9528274
0.894	0.3757202	5.9649876
0.896	0.3771650	5.9769837
0.898	0.3786272	5.9888147
0.900	0.3801069	6.0004794
