Material: main / Au / Klinavicius-19.7nm
Optical constants. T. Klinavičius, A. Tamulevičienė, T. Tamulevičius. How to select the proper gold permittivity for generating training data for deep neural networks for analysis of the nanoparticle colloid size distributions from their UV–Vis–NIR extinction spectra? J. Phys. Chem. C 129, 17616-17631 (2025) (See Supporting information)
Comments: 19.7 nm average radius chemically synthesized spherical gold nanoparticles. Samples were prepared for imaging by drop casting sonicated and then centrifuged colloids on a cleaned silicon substrate and dried at a 4 °C temperature.
Conditions: {"substrate": "Si"}
wavelength (um)	n	k
0.400	1.9201590	2.1905490
0.402	1.9253713	2.1925014
0.404	1.9297144	2.1939609
0.406	1.9331801	2.1949306
0.408	1.9357613	2.1954154
0.410	1.9374514	2.1954214
0.412	1.9382444	2.1949559
0.414	1.9381352	2.1940278
0.416	1.9371195	2.1926473
0.418	1.9351936	2.1908261
0.420	1.9323545	2.1885773
0.422	1.9286000	2.1859155
0.424	1.9239285	2.1828566
0.426	1.9183392	2.1794183
0.428	1.9118320	2.1756195
0.430	1.9044076	2.1714808
0.432	1.8960671	2.1670242
0.434	1.8868126	2.1622735
0.436	1.8766469	2.1572536
0.438	1.8655735	2.1519914
0.440	1.8535965	2.1465152
0.442	1.8407210	2.1408549
0.444	1.8269528	2.1350420
0.446	1.8122984	2.1291095
0.448	1.7967654	2.1230922
0.450	1.7803622	2.1170263
0.452	1.7630981	2.1109497
0.454	1.7449836	2.1049019
0.456	1.7260301	2.0989239
0.458	1.7062505	2.0930583
0.460	1.6856587	2.0873491
0.462	1.6642702	2.0818419
0.464	1.6421021	2.0765836
0.466	1.6191729	2.0716225
0.468	1.5955033	2.0670080
0.470	1.5711158	2.0627908
0.472	1.5460352	2.0590223
0.474	1.5202885	2.0557548
0.476	1.4939055	2.0530412
0.478	1.4669185	2.0509344
0.480	1.4393628	2.0494876
0.482	1.4112769	2.0487535
0.484	1.3827025	2.0487840
0.486	1.3536846	2.0496299
0.488	1.3242715	2.0513402
0.490	1.2945151	2.0539617
0.492	1.2644707	2.0575386
0.494	1.2341967	2.0621114
0.496	1.2037546	2.0677171
0.498	1.1732086	2.0743877
0.500	1.1426253	2.0821504
0.502	1.1120729	2.0910267
0.504	1.0816210	2.1010321
0.506	1.0513396	2.1121755
0.508	1.0212985	2.1244594
0.510	0.9915665	2.1378795
0.512	0.9622105	2.1524247
0.514	0.9332949	2.1680773
0.516	0.9048807	2.1848136
0.518	0.8770246	2.2026038
0.520	0.8497791	2.2214129
0.522	0.8231911	2.2412014
0.524	0.7973021	2.2619257
0.526	0.7721481	2.2835390
0.528	0.7477590	2.3059920
0.530	0.7241588	2.3292339
0.532	0.7013658	2.3532126
0.534	0.6793930	2.3778757
0.536	0.6582480	2.4031709
0.538	0.6379335	2.4290468
0.540	0.6184478	2.4554528
0.542	0.5997852	2.4823401
0.544	0.5819364	2.5096614
0.546	0.5648890	2.5373715
0.548	0.5486277	2.5654273
0.550	0.5331351	2.5937879
0.552	0.5183917	2.6224146
0.554	0.5043766	2.6512710
0.556	0.4910676	2.6803229
0.558	0.4784415	2.7095385
0.560	0.4664744	2.7388877
0.562	0.4551423	2.7683429
0.564	0.4444205	2.7978781
0.566	0.4342845	2.8274693
0.568	0.4247099	2.8570943
0.570	0.4156726	2.8867325
0.572	0.4071486	2.9163647
0.574	0.3991146	2.9459733
0.576	0.3915478	2.9755420
0.578	0.3844258	3.0050559
0.580	0.3777271	3.0345010
0.582	0.3714305	3.0638647
0.584	0.3655159	3.0931351
0.586	0.3599636	3.1223014
0.588	0.3547549	3.1513539
0.590	0.3498717	3.1802834
0.592	0.3452965	3.2090815
0.594	0.3410128	3.2377407
0.596	0.3370047	3.2662541
0.598	0.3332570	3.2946153
0.600	0.3297553	3.3228187
0.602	0.3264858	3.3508589
0.604	0.3234353	3.3787315
0.606	0.3205914	3.4064322
0.608	0.3179422	3.4339573
0.610	0.3154767	3.4613034
0.612	0.3131840	3.4884677
0.614	0.3110543	3.5154477
0.616	0.3090779	3.5422411
0.618	0.3072459	3.5688462
0.620	0.3055499	3.5952614
0.622	0.3039817	3.6214855
0.624	0.3025339	3.6475175
0.626	0.3011994	3.6733569
0.628	0.2999715	3.6990032
0.630	0.2988438	3.7244562
0.632	0.2978105	3.7497160
0.634	0.2968661	3.7747828
0.636	0.2960053	3.7996573
0.638	0.2952232	3.8243399
0.640	0.2945152	3.8488316
0.642	0.2938771	3.8731335
0.644	0.2933048	3.8972466
0.646	0.2927945	3.9211724
0.648	0.2923428	3.9449123
0.650	0.2919462	3.9684679
0.652	0.2916018	3.9918411
0.654	0.2913067	4.0150336
0.656	0.2910581	4.0380476
0.658	0.2908535	4.0608849
0.660	0.2906905	4.0835479
0.662	0.2905670	4.1060388
0.664	0.2904810	4.1283600
0.666	0.2904304	4.1505139
0.668	0.2904135	4.1725029
0.670	0.2904287	4.1943297
0.672	0.2904743	4.2159969
0.674	0.2905489	4.2375072
0.676	0.2906511	4.2588632
0.678	0.2907797	4.2800677
0.680	0.2909336	4.3011236
0.682	0.2911114	4.3220336
0.684	0.2913123	4.3428006
0.686	0.2915353	4.3634274
0.688	0.2917794	4.3839169
0.690	0.2920438	4.4042721
0.692	0.2923277	4.4244957
0.694	0.2926304	4.4445908
0.696	0.2929511	4.4645602
0.698	0.2932892	4.4844067
0.700	0.2936442	4.5041333
0.702	0.2940153	4.5237429
0.704	0.2944021	4.5432382
0.706	0.2948040	4.5626221
0.708	0.2952206	4.5818974
0.710	0.2956514	4.6010669
0.712	0.2960961	4.6201333
0.714	0.2965541	4.6390994
0.716	0.2970251	4.6579678
0.718	0.2975087	4.6767412
0.720	0.2980047	4.6954222
0.722	0.2985127	4.7140133
0.724	0.2990323	4.7325171
0.726	0.2995634	4.7509361
0.728	0.3001055	4.7692727
0.730	0.3006585	4.7875294
0.732	0.3012222	4.8057083
0.734	0.3017962	4.8238119
0.736	0.3023804	4.8418424
0.738	0.3029746	4.8598020
0.740	0.3035785	4.8776927
0.742	0.3041920	4.8955168
0.744	0.3048148	4.9132763
0.746	0.3054469	4.9309730
0.748	0.3060880	4.9486090
0.750	0.3067380	4.9661862
0.752	0.3073967	4.9837063
0.754	0.3080641	5.0011710
0.756	0.3087399	5.0185822
0.758	0.3094241	5.0359415
0.760	0.3101165	5.0532504
0.762	0.3108170	5.0705105
0.764	0.3115255	5.0877234
0.766	0.3122419	5.1048903
0.768	0.3129661	5.1220128
0.770	0.3136980	5.1390922
0.772	0.3144376	5.1561297
0.774	0.3151847	5.1731265
0.776	0.3159392	5.1900839
0.778	0.3167011	5.2070029
0.780	0.3174704	5.2238847
0.782	0.3182469	5.2407302
0.784	0.3190306	5.2575405
0.786	0.3198214	5.2743164
0.788	0.3206193	5.2910590
0.790	0.3214242	5.3077689
0.792	0.3222362	5.3244470
0.794	0.3230550	5.3410941
0.796	0.3238808	5.3577109
0.798	0.3247135	5.3742980
0.800	0.3255530	5.3908561
0.802	0.3263993	5.4073857
0.804	0.3272524	5.4238875
0.806	0.3281122	5.4403618
0.808	0.3289788	5.4568093
0.810	0.3298521	5.4732303
0.812	0.3307321	5.4896253
0.814	0.3316188	5.5059946
0.816	0.3325121	5.5223386
0.818	0.3334121	5.5386576
0.820	0.3343188	5.5549518
0.822	0.3352322	5.5712215
0.824	0.3361522	5.5874670
0.826	0.3370789	5.6036884
0.828	0.3380122	5.6198858
0.830	0.3389521	5.6360596
0.832	0.3398988	5.6522096
0.834	0.3408521	5.6683362
0.836	0.3418121	5.6844392
0.838	0.3427788	5.7005188
0.840	0.3437522	5.7165750
0.842	0.3447323	5.7326078
0.844	0.3457192	5.7486172
0.846	0.3467128	5.7646031
0.848	0.3477131	5.7805656
0.850	0.3487203	5.7965045
0.852	0.3497343	5.8124197
0.854	0.3507551	5.8283111
0.856	0.3517827	5.8441787
0.858	0.3528173	5.8600223
0.860	0.3538587	5.8758418
0.862	0.3549071	5.8916369
0.864	0.3559624	5.9074076
0.866	0.3570248	5.9231536
0.868	0.3580941	5.9388748
0.870	0.3591705	5.9545709
0.872	0.3602540	5.9702417
0.874	0.3613446	5.9858870
0.876	0.3624424	6.0015066
0.878	0.3635473	6.0171002
0.880	0.3646595	6.0326675
0.882	0.3657789	6.0482084
0.884	0.3669057	6.0637224
0.886	0.3680397	6.0792095
0.888	0.3691811	6.0946691
0.890	0.3703300	6.1101012
0.892	0.3714863	6.1255054
0.894	0.3726501	6.1408813
0.896	0.3738214	6.1562287
0.898	0.3750003	6.1715472
0.900	0.3761868	6.1868366
