Material: main / Au / Klinavicius-30.4nm
Optical constants. T. Klinavičius, A. Tamulevičienė, T. Tamulevičius. How to select the proper gold permittivity for generating training data for deep neural networks for analysis of the nanoparticle colloid size distributions from their UV–Vis–NIR extinction spectra? J. Phys. Chem. C 129, 17616-17631 (2025) (See Supporting information)
Comments: 30.4 nm average radius chemically synthesized spherical gold nanoparticles. Samples were prepared for imaging by drop casting sonicated and then centrifuged colloids on a cleaned silicon substrate and dried at a 4 °C temperature.
Conditions: {"substrate": "Si"}
wavelength (um)	n	k
0.400	1.8725405	2.1296842
0.402	1.8772074	2.1291918
0.404	1.8811352	2.1282565
0.406	1.8843134	2.1268877
0.408	1.8867319	2.1250955
0.410	1.8883811	2.1228915
0.412	1.8892517	2.1202884
0.414	1.8893348	2.1173002
0.416	1.8886222	2.1139420
0.418	1.8871057	2.1102305
0.420	1.8847779	2.1061832
0.422	1.8816316	2.1018191
0.424	1.8776600	2.0971588
0.426	1.8728569	2.0922237
0.428	1.8672165	2.0870368
0.430	1.8607334	2.0816225
0.432	1.8534027	2.0760064
0.434	1.8452200	2.0702157
0.436	1.8361814	2.0642786
0.438	1.8262836	2.0582252
0.440	1.8155238	2.0520867
0.442	1.8039000	2.0458958
0.444	1.7914107	2.0396867
0.446	1.7780553	2.0334951
0.448	1.7638338	2.0273579
0.450	1.7487473	2.0213139
0.452	1.7327979	2.0154031
0.454	1.7159886	2.0096671
0.456	1.6983240	2.0041488
0.458	1.6798095	1.9988929
0.460	1.6604527	1.9939452
0.462	1.6402623	1.9893530
0.464	1.6192493	1.9851649
0.466	1.5974265	1.9814308
0.468	1.5748092	1.9782016
0.470	1.5514153	1.9755294
0.472	1.5272653	1.9734668
0.474	1.5023830	1.9720673
0.476	1.4767953	1.9713845
0.478	1.4505328	1.9714721
0.480	1.4236299	1.9723835
0.482	1.3961251	1.9741711
0.484	1.3680611	1.9768862
0.486	1.3394850	1.9805782
0.488	1.3104481	1.9852941
0.490	1.2810065	1.9910778
0.492	1.2512203	1.9979693
0.494	1.2211539	2.0060043
0.496	1.1908752	2.0152132
0.498	1.1604556	2.0256207
0.500	1.1299691	2.0372447
0.502	1.0994917	2.0500964
0.504	1.0691003	2.0641796
0.506	1.0388724	2.0794901
0.508	1.0088844	2.0960162
0.510	0.9792111	2.1137383
0.512	0.9499247	2.1326294
0.514	0.9210933	2.1526553
0.516	0.8927810	2.1737753
0.518	0.8650464	2.1959430
0.520	0.8379424	2.2191067
0.522	0.8115156	2.2432109
0.524	0.7858062	2.2681967
0.526	0.7608477	2.2940030
0.528	0.7366674	2.3205672
0.530	0.7132858	2.3478262
0.532	0.6907176	2.3757170
0.534	0.6689719	2.4041776
0.536	0.6480523	2.4331471
0.538	0.6279579	2.4625668
0.540	0.6086832	2.4923800
0.542	0.5902194	2.5225326
0.544	0.5725541	2.5529734
0.546	0.5556723	2.5836537
0.548	0.5395566	2.6145280
0.550	0.5241878	2.6455537
0.552	0.5095450	2.6766911
0.554	0.4956063	2.7079032
0.556	0.4823489	2.7391560
0.558	0.4697493	2.7704181
0.560	0.4577837	2.8016604
0.562	0.4464281	2.8328567
0.564	0.4356585	2.8639826
0.566	0.4254511	2.8950161
0.568	0.4157824	2.9259373
0.570	0.4066291	2.9567281
0.572	0.3979685	2.9873722
0.574	0.3897784	3.0178548
0.576	0.3820372	3.0481631
0.578	0.3747239	3.0782853
0.580	0.3678181	3.1082111
0.582	0.3613002	3.1379316
0.584	0.3551510	3.1674389
0.586	0.3493524	3.1967262
0.588	0.3438866	3.2257879
0.590	0.3387367	3.2546191
0.592	0.3338865	3.2832159
0.594	0.3293204	3.3115752
0.596	0.3250235	3.3396947
0.598	0.3209815	3.3675727
0.600	0.3171808	3.3952083
0.602	0.3136084	3.4226010
0.604	0.3102518	3.4497510
0.606	0.3070992	3.4766591
0.608	0.3041395	3.5033264
0.610	0.3013617	3.5297546
0.612	0.2987558	3.5559456
0.614	0.2963121	3.5819019
0.616	0.2940213	3.6076262
0.618	0.2918748	3.6331215
0.620	0.2898642	3.6583913
0.622	0.2879816	3.6834391
0.624	0.2862197	3.7082688
0.626	0.2845715	3.7328845
0.628	0.2830301	3.7572903
0.630	0.2815894	3.7814907
0.632	0.2802434	3.8054902
0.634	0.2789864	3.8292935
0.636	0.2778132	3.8529055
0.638	0.2767187	3.8763310
0.640	0.2756981	3.8995749
0.642	0.2747472	3.9226422
0.644	0.2738615	3.9455381
0.646	0.2730372	3.9682675
0.648	0.2722706	3.9908357
0.650	0.2715581	4.0132476
0.652	0.2708965	4.0355084
0.654	0.2702826	4.0576232
0.656	0.2697136	4.0795969
0.658	0.2691867	4.1014346
0.660	0.2686994	4.1231412
0.662	0.2682492	4.1447217
0.664	0.2678339	4.1661807
0.666	0.2674514	4.1875231
0.668	0.2670997	4.2087536
0.670	0.2667769	4.2298766
0.672	0.2664814	4.2508967
0.674	0.2662114	4.2718183
0.676	0.2659655	4.2926457
0.678	0.2657423	4.3133829
0.680	0.2655404	4.3340342
0.682	0.2653586	4.3546033
0.684	0.2651958	4.3750943
0.686	0.2650508	4.3955107
0.688	0.2649226	4.4158563
0.690	0.2648104	4.4361344
0.692	0.2647132	4.4563484
0.694	0.2646302	4.4765017
0.696	0.2645607	4.4965972
0.698	0.2645039	4.5166379
0.700	0.2644593	4.5366269
0.702	0.2644261	4.5565667
0.704	0.2644039	4.5764601
0.706	0.2643921	4.5963095
0.708	0.2643902	4.6161173
0.710	0.2643977	4.6358859
0.712	0.2644143	4.6556174
0.714	0.2644395	4.6753138
0.716	0.2644730	4.6949771
0.718	0.2645144	4.7146091
0.720	0.2645634	4.7342115
0.722	0.2646198	4.7537861
0.724	0.2646833	4.7733343
0.726	0.2647536	4.7928575
0.728	0.2648304	4.8123571
0.730	0.2649137	4.8318343
0.732	0.2650031	4.8512903
0.734	0.2650986	4.8707261
0.736	0.2651999	4.8901428
0.738	0.2653068	4.9095413
0.740	0.2654193	4.9289223
0.742	0.2655373	4.9482867
0.744	0.2656605	4.9676351
0.746	0.2657889	4.9869681
0.748	0.2659224	5.0062863
0.750	0.2660609	5.0255901
0.752	0.2662043	5.0448800
0.754	0.2663525	5.0641563
0.756	0.2665055	5.0834194
0.758	0.2666632	5.1026695
0.760	0.2668255	5.1219067
0.762	0.2669924	5.1411314
0.764	0.2671639	5.1603434
0.766	0.2673398	5.1795430
0.768	0.2675202	5.1987302
0.770	0.2677050	5.2179048
0.772	0.2678942	5.2370669
0.774	0.2680877	5.2562164
0.776	0.2682856	5.2753531
0.778	0.2684878	5.2944769
0.780	0.2686942	5.3135876
0.782	0.2689049	5.3326849
0.784	0.2691199	5.3517687
0.786	0.2693392	5.3708386
0.788	0.2695626	5.3898944
0.790	0.2697903	5.4089357
0.792	0.2700222	5.4279623
0.794	0.2702583	5.4469736
0.796	0.2704986	5.4659694
0.798	0.2707431	5.4849493
0.800	0.2709919	5.5039128
0.802	0.2712448	5.5228596
0.804	0.2715019	5.5417891
0.806	0.2717632	5.5607009
0.808	0.2720288	5.5795946
0.810	0.2722985	5.5984696
0.812	0.2725725	5.6173255
0.814	0.2728507	5.6361618
0.816	0.2731332	5.6549779
0.818	0.2734198	5.6737733
0.820	0.2737108	5.6925476
0.822	0.2740059	5.7113000
0.824	0.2743054	5.7300302
0.826	0.2746091	5.7487375
0.828	0.2749171	5.7674214
0.830	0.2752294	5.7860813
0.832	0.2755459	5.8047166
0.834	0.2758669	5.8233268
0.836	0.2761921	5.8419113
0.838	0.2765217	5.8604695
0.840	0.2768556	5.8790007
0.842	0.2771939	5.8975045
0.844	0.2775366	5.9159802
0.846	0.2778837	5.9344271
0.848	0.2782352	5.9528448
0.850	0.2785911	5.9712325
0.852	0.2789515	5.9895898
0.854	0.2793163	6.0079158
0.856	0.2796856	6.0262101
0.858	0.2800593	6.0444721
0.860	0.2804376	6.0627010
0.862	0.2808204	6.0808963
0.864	0.2812077	6.0990574
0.866	0.2815996	6.1171836
0.868	0.2819960	6.1352743
0.870	0.2823971	6.1533289
0.872	0.2828027	6.1713467
0.874	0.2832130	6.1893271
0.876	0.2836279	6.2072696
0.878	0.2840474	6.2251734
0.880	0.2844717	6.2430379
0.882	0.2849006	6.2608625
0.884	0.2853343	6.2786466
0.886	0.2857727	6.2963895
0.888	0.2862158	6.3140907
0.890	0.2866637	6.3317493
0.892	0.2871165	6.3493649
0.894	0.2875740	6.3669368
0.896	0.2880364	6.3844644
0.898	0.2885036	6.4019470
0.900	0.2889757	6.4193840
