Material: main / Au / Klinavicius-11.4nm
Optical constants. T. Klinavičius, A. Tamulevičienė, T. Tamulevičius. How to select the proper gold permittivity for generating training data for deep neural networks for analysis of the nanoparticle colloid size distributions from their UV–Vis–NIR extinction spectra? J. Phys. Chem. C 129, 17616-17631 (2025) (See Supporting informations)
Comments: 11.4 nm average radius chemically synthesized spherical gold nanoparticles. Colloid solution in water.
wavelength (um)	n	k
0.400	1.7188702	2.0579430
0.402	1.7239512	2.0598412
0.404	1.7283882	2.0612209
0.406	1.7321680	2.0620920
0.408	1.7352780	2.0624662
0.410	1.7377058	2.0623566
0.412	1.7394391	2.0617780
0.414	1.7404662	2.0607466
0.416	1.7407754	2.0592801
0.418	1.7403554	2.0573978
0.420	1.7391954	2.0551206
0.422	1.7372849	2.0524707
0.424	1.7346137	2.0494722
0.426	1.7311722	2.0461503
0.428	1.7269510	2.0425320
0.430	1.7219416	2.0386455
0.432	1.7161359	2.0345208
0.434	1.7095262	2.0301891
0.436	1.7021060	2.0256830
0.438	1.6938691	2.0210366
0.440	1.6848104	2.0162852
0.442	1.6749257	2.0114657
0.444	1.6642116	2.0066160
0.446	1.6526663	2.0017754
0.448	1.6402888	1.9969843
0.450	1.6270796	1.9922843
0.452	1.6130410	1.9877181
0.454	1.5981765	1.9833292
0.456	1.5824918	1.9791623
0.458	1.5659944	1.9752626
0.460	1.5486940	1.9716762
0.462	1.5306025	1.9684498
0.464	1.5117347	1.9656304
0.466	1.4921076	1.9632651
0.468	1.4717416	1.9614013
0.470	1.4506600	1.9600859
0.472	1.4288892	1.9593655
0.474	1.4064594	1.9592859
0.476	1.3834041	1.9598917
0.478	1.3597605	1.9612259
0.480	1.3355698	1.9633298
0.482	1.3108766	1.9662421
0.484	1.2857296	1.9699989
0.486	1.2601809	1.9746329
0.488	1.2342862	1.9801730
0.490	1.2081043	1.9866437
0.492	1.1816967	1.9940651
0.494	1.1551276	2.0024517
0.496	1.1284629	2.0118129
0.498	1.1017698	2.0221518
0.500	1.0751161	2.0334659
0.502	1.0485695	2.0457462
0.504	1.0221970	2.0589777
0.506	0.9960638	2.0731394
0.508	0.9702330	2.0882045
0.510	0.9447645	2.1041408
0.512	0.9197147	2.1209113
0.514	0.8951359	2.1384744
0.516	0.8710756	2.1567849
0.518	0.8475764	2.1757947
0.520	0.8246757	2.1954530
0.522	0.8024058	2.2157077
0.524	0.7807935	2.2365056
0.526	0.7598605	2.2577933
0.528	0.7396232	2.2795176
0.530	0.7200936	2.3016263
0.532	0.7012789	2.3240686
0.534	0.6831823	2.3467952
0.536	0.6658031	2.3697591
0.538	0.6491372	2.3929156
0.540	0.6331776	2.4162227
0.542	0.6179143	2.4396409
0.544	0.6033353	2.4631336
0.546	0.5894265	2.4866669
0.548	0.5761723	2.5102099
0.550	0.5635555	2.5337343
0.552	0.5515579	2.5572147
0.554	0.5401606	2.5806283
0.556	0.5293440	2.6039547
0.558	0.5190880	2.6271761
0.560	0.5093722	2.6502768
0.562	0.5001763	2.6732435
0.564	0.4914798	2.6960647
0.566	0.4832624	2.7187310
0.568	0.4755039	2.7412345
0.570	0.4681846	2.7635693
0.572	0.4612851	2.7857308
0.574	0.4547862	2.8077155
0.576	0.4486693	2.8295217
0.578	0.4429165	2.8511485
0.580	0.4375100	2.8725961
0.582	0.4324329	2.8938655
0.584	0.4276686	2.9149587
0.586	0.4232012	2.9358785
0.588	0.4190154	2.9566280
0.590	0.4150963	2.9772111
0.592	0.4114297	2.9976322
0.594	0.4080020	3.0178961
0.596	0.4048000	3.0380077
0.598	0.4018113	3.0579725
0.600	0.3990238	3.0777960
0.602	0.3964261	3.0974839
0.604	0.3940073	3.1170421
0.606	0.3917569	3.1364765
0.608	0.3896650	3.1557930
0.610	0.3877222	3.1749976
0.612	0.3859195	3.1940961
0.614	0.3842484	3.2130943
0.616	0.3827009	3.2319980
0.618	0.3812692	3.2508128
0.620	0.3799463	3.2695441
0.622	0.3787251	3.2881972
0.624	0.3775994	3.3067773
0.626	0.3765630	3.3252893
0.628	0.3756102	3.3437379
0.630	0.3747356	3.3621277
0.632	0.3739341	3.3804629
0.634	0.3732010	3.3987479
0.636	0.3725318	3.4169863
0.638	0.3719224	3.4351820
0.640	0.3713687	3.4533384
0.642	0.3708672	3.4714588
0.644	0.3704143	3.4895461
0.646	0.3700070	3.5076034
0.648	0.3696423	3.5256331
0.650	0.3693173	3.5436377
0.652	0.3690295	3.5616195
0.654	0.3687766	3.5795805
0.656	0.3685561	3.5975227
0.658	0.3683663	3.6154476
0.660	0.3682050	3.6333568
0.662	0.3680705	3.6512518
0.664	0.3679613	3.6691336
0.666	0.3678758	3.6870034
0.668	0.3678125	3.7048622
0.670	0.3677704	3.7227106
0.672	0.3677480	3.7405495
0.674	0.3677445	3.7583793
0.676	0.3677587	3.7762005
0.678	0.3677899	3.7940135
0.680	0.3678370	3.8118185
0.682	0.3678995	3.8296157
0.684	0.3679765	3.8474050
0.686	0.3680675	3.8651867
0.688	0.3681719	3.8829604
0.690	0.3682891	3.9007262
0.692	0.3684187	3.9184838
0.694	0.3685602	3.9362329
0.696	0.3687133	3.9539732
0.698	0.3688776	3.9717043
0.700	0.3690528	3.9894259
0.702	0.3692385	4.0071374
0.704	0.3694346	4.0248383
0.706	0.3696408	4.0425281
0.708	0.3698569	4.0602063
0.710	0.3700826	4.0778722
0.712	0.3703179	4.0955252
0.714	0.3705627	4.1131647
0.716	0.3708166	4.1307899
0.718	0.3710797	4.1484003
0.720	0.3713519	4.1659950
0.722	0.3716330	4.1835733
0.724	0.3719230	4.2011345
0.726	0.3722218	4.2186778
0.728	0.3725294	4.2362025
0.730	0.3728457	4.2537077
0.732	0.3731706	4.2711926
0.734	0.3735042	4.2886565
0.736	0.3738464	4.3060985
0.738	0.3741973	4.3235178
0.740	0.3745566	4.3409136
0.742	0.3749246	4.3582850
0.744	0.3753011	4.3756311
0.746	0.3756862	4.3929512
0.748	0.3760799	4.4102444
0.750	0.3764821	4.4275097
0.752	0.3768930	4.4447464
0.754	0.3773124	4.4619536
0.756	0.3777404	4.4791303
0.758	0.3781770	4.4962758
0.760	0.3786223	4.5133892
0.762	0.3790763	4.5304695
0.764	0.3795389	4.5475158
0.766	0.3800103	4.5645274
0.768	0.3804903	4.5815033
0.770	0.3809792	4.5984427
0.772	0.3814768	4.6153445
0.774	0.3819833	4.6322081
0.776	0.3824986	4.6490324
0.778	0.3830228	4.6658165
0.780	0.3835559	4.6825597
0.782	0.3840979	4.6992609
0.784	0.3846490	4.7159193
0.786	0.3852090	4.7325341
0.788	0.3857781	4.7491042
0.790	0.3863563	4.7656289
0.792	0.3869437	4.7821071
0.794	0.3875402	4.7985381
0.796	0.3881459	4.8149210
0.798	0.3887609	4.8312548
0.800	0.3893852	4.8475386
0.802	0.3900188	4.8637716
0.804	0.3906617	4.8799529
0.806	0.3913141	4.8960815
0.808	0.3919760	4.9121566
0.810	0.3926474	4.9281773
0.812	0.3933283	4.9441427
0.814	0.3940188	4.9600520
0.816	0.3947190	4.9759042
0.818	0.3954289	4.9916984
0.820	0.3961485	5.0074338
0.822	0.3968779	5.0231095
0.824	0.3976172	5.0387246
0.826	0.3983664	5.0542782
0.828	0.3991255	5.0697694
0.830	0.3998946	5.0851974
0.832	0.4006737	5.1005613
0.834	0.4014630	5.1158603
0.836	0.4022624	5.1310934
0.838	0.4030721	5.1462597
0.840	0.4038920	5.1613585
0.842	0.4047222	5.1763889
0.844	0.4055628	5.1913499
0.846	0.4064139	5.2062408
0.848	0.4072755	5.2210606
0.850	0.4081476	5.2358085
0.852	0.4090303	5.2504837
0.854	0.4099238	5.2650854
0.856	0.4108279	5.2796126
0.858	0.4117429	5.2940645
0.860	0.4126688	5.3084403
0.862	0.4136056	5.3227392
0.864	0.4145534	5.3369602
0.866	0.4155122	5.3511027
0.868	0.4164822	5.3651657
0.870	0.4174634	5.3791484
0.872	0.4184559	5.3930500
0.874	0.4194597	5.4068697
0.876	0.4204749	5.4206067
0.878	0.4215016	5.4342602
0.880	0.4225398	5.4478293
0.882	0.4235897	5.4613132
0.884	0.4246513	5.4747112
0.886	0.4257246	5.4880225
0.888	0.4268098	5.5012462
0.890	0.4279070	5.5143816
0.892	0.4290161	5.5274279
0.894	0.4301373	5.5403844
0.896	0.4312707	5.5532501
0.898	0.4324163	5.5660245
0.900	0.4335743	5.5787066
