Material: main / Au / Klinavicius-7.2nm
Optical constants. T. Klinavičius, A. Tamulevičienė, T. Tamulevičius. How to select the proper gold permittivity for generating training data for deep neural networks for analysis of the nanoparticle colloid size distributions from their UV–Vis–NIR extinction spectra? J. Phys. Chem. C 129, 17616-17631 (2025) (See Supporting information)
Comments: 7.2 nm average radius chemically synthesized spherical gold nanoparticles. Samples were prepared for imaging by drop casting sonicated and then centrifuged colloids on a cleaned silicon substrate and dried at a 4 °C temperature.
Conditions: {"substrate": "Si"}
wavelength (um)	n	k
0.400	1.6235960	1.9442423
0.402	1.6270015	1.9463738
0.404	1.6299310	1.9480774
0.406	1.6323718	1.9493657
0.408	1.6343108	1.9502533
0.410	1.6357347	1.9507559
0.412	1.6366298	1.9508911
0.414	1.6369822	1.9506780
0.416	1.6367780	1.9501369
0.418	1.6360028	1.9492900
0.420	1.6346422	1.9481608
0.422	1.6326820	1.9467740
0.424	1.6301078	1.9451559
0.426	1.6269053	1.9433340
0.428	1.6230605	1.9413372
0.430	1.6185596	1.9391955
0.432	1.6133894	1.9369400
0.434	1.6075369	1.9346029
0.436	1.6009902	1.9322174
0.438	1.5937379	1.9298175
0.440	1.5857696	1.9274382
0.442	1.5770761	1.9251151
0.444	1.5676493	1.9228846
0.446	1.5574828	1.9207834
0.448	1.5465715	1.9188489
0.450	1.5349124	1.9171186
0.452	1.5225043	1.9156304
0.454	1.5093482	1.9144221
0.456	1.4954475	1.9135315
0.458	1.4808080	1.9129963
0.460	1.4654384	1.9128536
0.462	1.4493502	1.9131401
0.464	1.4325578	1.9138917
0.466	1.4150789	1.9151433
0.468	1.3969345	1.9169287
0.470	1.3781488	1.9192802
0.472	1.3587496	1.9222284
0.474	1.3387680	1.9258020
0.476	1.3182386	1.9300274
0.478	1.2971995	1.9349286
0.480	1.2756916	1.9405266
0.482	1.2537594	1.9468394
0.484	1.2314499	1.9538816
0.486	1.2088129	1.9616644
0.488	1.1859001	1.9701948
0.490	1.1627653	1.9794759
0.492	1.1394636	1.9895069
0.494	1.1160510	2.0002824
0.496	1.0925839	2.0117928
0.498	1.0691185	2.0240245
0.500	1.0457103	2.0369597
0.502	1.0224138	2.0505766
0.504	0.9992815	2.0648498
0.506	0.9763638	2.0797508
0.508	0.9537086	2.0952480
0.510	0.9313605	2.1113073
0.512	0.9093611	2.1278926
0.514	0.8877481	2.1449662
0.516	0.8665559	2.1624895
0.518	0.8458148	2.1804232
0.520	0.8255511	2.1987278
0.522	0.8057877	2.2173642
0.524	0.7865435	2.2362941
0.526	0.7678337	2.2554803
0.528	0.7496702	2.2748867
0.530	0.7320617	2.2944794
0.532	0.7150138	2.3142259
0.534	0.6985293	2.3340959
0.536	0.6826086	2.3540615
0.538	0.6672497	2.3740968
0.540	0.6524486	2.3941782
0.542	0.6381994	2.4142847
0.544	0.6244948	2.4343971
0.546	0.6113260	2.4544988
0.548	0.5986831	2.4745752
0.550	0.5865551	2.4946139
0.552	0.5749302	2.5146041
0.554	0.5637961	2.5345372
0.556	0.5531397	2.5544061
0.558	0.5429477	2.5742054
0.560	0.5332064	2.5939309
0.562	0.5239020	2.6135801
0.564	0.5150203	2.6331513
0.566	0.5065474	2.6526440
0.568	0.4984692	2.6720588
0.570	0.4907718	2.6913967
0.572	0.4834412	2.7106598
0.574	0.4764639	2.7298506
0.576	0.4698263	2.7489721
0.578	0.4635152	2.7680276
0.580	0.4575175	2.7870209
0.582	0.4518206	2.8059560
0.584	0.4464120	2.8248369
0.586	0.4412796	2.8436678
0.588	0.4364116	2.8624531
0.590	0.4317964	2.8811969
0.592	0.4274230	2.8999033
0.594	0.4232806	2.9185766
0.596	0.4193586	2.9372207
0.598	0.4156470	2.9558393
0.600	0.4121359	2.9744361
0.602	0.4088159	2.9930145
0.604	0.4056779	3.0115778
0.606	0.4027132	3.0301290
0.608	0.3999132	3.0486709
0.610	0.3972699	3.0672060
0.612	0.3947755	3.0857367
0.614	0.3924224	3.1042651
0.616	0.3902037	3.1227930
0.618	0.3881123	3.1413222
0.620	0.3861417	3.1598541
0.622	0.3842857	3.1783898
0.624	0.3825383	3.1969306
0.626	0.3808937	3.2154771
0.628	0.3793465	3.2340301
0.630	0.3778915	3.2525901
0.632	0.3765238	3.2711574
0.634	0.3752387	3.2897322
0.636	0.3740318	3.3083146
0.638	0.3728988	3.3269044
0.640	0.3718356	3.3455016
0.642	0.3708386	3.3641057
0.644	0.3699041	3.3827164
0.646	0.3690286	3.4013332
0.648	0.3682091	3.4199554
0.650	0.3674424	3.4385824
0.652	0.3667258	3.4572135
0.654	0.3660564	3.4758479
0.656	0.3654317	3.4944846
0.658	0.3648495	3.5131229
0.660	0.3643074	3.5317617
0.662	0.3638032	3.5504000
0.664	0.3633351	3.5690369
0.666	0.3629012	3.5876712
0.668	0.3624997	3.6063019
0.670	0.3621289	3.6249278
0.672	0.3617875	3.6435478
0.674	0.3614739	3.6621608
0.676	0.3611868	3.6807656
0.678	0.3609250	3.6993609
0.680	0.3606873	3.7179456
0.682	0.3604727	3.7365185
0.684	0.3602800	3.7550784
0.686	0.3601085	3.7736239
0.688	0.3599573	3.7921540
0.690	0.3598254	3.8106672
0.692	0.3597123	3.8291625
0.694	0.3596171	3.8476386
0.696	0.3595393	3.8660941
0.698	0.3594783	3.8845278
0.700	0.3594335	3.9029385
0.702	0.3594045	3.9213249
0.704	0.3593907	3.9396857
0.706	0.3593917	3.9580198
0.708	0.3594072	3.9763257
0.710	0.3594368	3.9946022
0.712	0.3594802	4.0128481
0.714	0.3595370	4.0310621
0.716	0.3596070	4.0492429
0.718	0.3596899	4.0673892
0.720	0.3597855	4.0854998
0.722	0.3598936	4.1035734
0.724	0.3600140	4.1216087
0.726	0.3601466	4.1396045
0.728	0.3602911	4.1575594
0.730	0.3604475	4.1754722
0.732	0.3606156	4.1933416
0.734	0.3607954	4.2111663
0.736	0.3609866	4.2289452
0.738	0.3611892	4.2466768
0.740	0.3614032	4.2643599
0.742	0.3616285	4.2819933
0.744	0.3618650	4.2995756
0.746	0.3621127	4.3171056
0.748	0.3623715	4.3345820
0.750	0.3626414	4.3520036
0.752	0.3629223	4.3693690
0.754	0.3632143	4.3866771
0.756	0.3635173	4.4039265
0.758	0.3638313	4.4211159
0.760	0.3641564	4.4382441
0.762	0.3644924	4.4553099
0.764	0.3648395	4.4723119
0.766	0.3651975	4.4892489
0.768	0.3655666	4.5061196
0.770	0.3659467	4.5229229
0.772	0.3663378	4.5396573
0.774	0.3667400	4.5563217
0.776	0.3671533	4.5729148
0.778	0.3675777	4.5894354
0.780	0.3680133	4.6058822
0.782	0.3684600	4.6222539
0.784	0.3689178	4.6385493
0.786	0.3693870	4.6547673
0.788	0.3698674	4.6709064
0.790	0.3703590	4.6869656
0.792	0.3708621	4.7029435
0.794	0.3713765	4.7188390
0.796	0.3719023	4.7346508
0.798	0.3724395	4.7503777
0.800	0.3729883	4.7660184
0.802	0.3735487	4.7815719
0.804	0.3741206	4.7970368
0.806	0.3747042	4.8124119
0.808	0.3752995	4.8276962
0.810	0.3759065	4.8428882
0.812	0.3765253	4.8579870
0.814	0.3771560	4.8729912
0.816	0.3777986	4.8878998
0.818	0.3784532	4.9027115
0.820	0.3791198	4.9174251
0.822	0.3797985	4.9320395
0.824	0.3804893	4.9465536
0.826	0.3811924	4.9609662
0.828	0.3819077	4.9752761
0.830	0.3826353	4.9894822
0.832	0.3833754	5.0035834
0.834	0.3841279	5.0175785
0.836	0.3848930	5.0314665
0.838	0.3856707	5.0452461
0.840	0.3864610	5.0589164
0.842	0.3872641	5.0724762
0.844	0.3880800	5.0859244
0.846	0.3889088	5.0992599
0.848	0.3897506	5.1124816
0.850	0.3906055	5.1255886
0.852	0.3914734	5.1385796
0.854	0.3923546	5.1514537
0.856	0.3932490	5.1642099
0.858	0.3941568	5.1768470
0.860	0.3950781	5.1893640
0.862	0.3960129	5.2017600
0.864	0.3969613	5.2140340
0.866	0.3979234	5.2261848
0.868	0.3988994	5.2382116
0.870	0.3998892	5.2501133
0.872	0.4008930	5.2618889
0.874	0.4019108	5.2735376
0.876	0.4029428	5.2850583
0.878	0.4039891	5.2964501
0.880	0.4050497	5.3077121
0.882	0.4061248	5.3188432
0.884	0.4072145	5.3298428
0.886	0.4083187	5.3407097
0.888	0.4094378	5.3514431
0.890	0.4105717	5.3620422
0.892	0.4117206	5.3725060
0.894	0.4128845	5.3828337
0.896	0.4140637	5.3930244
0.898	0.4152581	5.4030774
0.900	0.4164679	5.4129917
