Material: schott / obsolete / LF7
Optical constants. SCHOTT LF7 glass data sheet (2006)
Comments: obsolete
Dispersion formula 2, range 0.334 0.700 um, coefficients 0 1.26879731 0.00919553925 0.156697051 0.0447256764 0.887676301 106.8203610
wavelength (um)	k
0.334	6.2652E-07
0.350	1.4286E-07
0.365	4.3899E-08
0.370	2.9592E-08
0.380	1.8198E-08
0.390	1.2439E-08
0.400	1.2758E-08
0.420	6.6912E-09
0.460	7.3285E-09
0.500	7.9657E-09
0.580	9.2402E-09
0.660	1.5780E-08
0.700	2.2326E-08
