Material: main / MoS2 / MoS2-Zhang
Optical constants. Zhang, Hui; Ma, Yaoguang; Wan, Yi; Rong, Xin; Xie, Ziang; Wang, Wei; Dai, Lun; Measuring the Refractive Index of Highly Crystalline Monolayer MoS2 with High Confidence Nature 5, 8440 (2013)
wavelength (um)	n
0.401666	2.39202
0.423500	3.24672
0.437366	3.91582
0.444810	4.31885
0.459215	4.47253
0.474913	4.47325
0.486493	4.48989
0.499611	4.65963
0.508871	4.74059
0.539259	4.31514
0.554453	4.10644
0.566554	3.99425
0.580202	3.80159
0.593066	3.89077
0.602581	4.03617
0.611828	4.40707
0.621350	4.42362
0.640660	4.23927
0.648630	4.39266
0.654795	4.65066
0.658904	4.82803
0.667914	4.78012
0.674101	4.54685
0.690335	4.10464
0.711456	3.72709
0.747766	3.22138
wavelength (um)	k
0.400132	2.16645
0.411189	2.36830
0.419682	2.35258
0.427930	2.08719
0.434123	1.72506
0.449328	1.27475
0.465039	1.02581
0.483576	0.849477
0.495157	0.858063
0.507255	0.810298
0.540465	0.562161
0.557709	0.522686
0.573661	0.603957
0.586775	0.846172
0.595256	1.09623
0.607090	1.19342
0.614049	0.960180
0.625125	0.759346
0.635163	0.727593
0.645704	0.953583
0.651359	1.08270
0.658578	0.817262
0.663481	0.527553
0.669152	0.334525
0.687429	0.230668
0.707508	0.102732
0.725779	0.127734
0.745343	0.0319898
