Material: optical adhesives / NOA-170 / Iezzi
Optical constants. B. Iezzi, Z. Afkhami, S. Sanvordenker, D. Hoelzle, K. Barton, M. Shtein. Electrohydrodynamic jet printing of 1D photonic crystals: Part II — Optical design and reflectance characteristics, Adv. Mater Technol. 5, 2000431 (2020) (Numerical data kindly provided by Brian Iezzi)
Comments: 2 μm film spin-coated onto glass substrates.
Specs: {"n_absolute": false, "wavelength_vacuum": false, "film_thickness": "2 μm", "substrate": "glass"}
wavelength (um)	n
0.300	1.8511741
0.302	1.8492401
0.304	1.8473442
0.306	1.8454853
0.308	1.8436626
0.310	1.8418750
0.312	1.8401216
0.314	1.8384017
0.316	1.8367144
0.318	1.8350587
0.320	1.8334340
0.322	1.8318394
0.324	1.8302745
0.326	1.8287381
0.328	1.8272297
0.330	1.8257487
0.332	1.8242943
0.334	1.8228661
0.336	1.8214632
0.338	1.8200853
0.340	1.8187314
0.342	1.8174014
0.344	1.8160944
0.346	1.8148100
0.348	1.8135478
0.350	1.8123071
0.352	1.8110875
0.354	1.8098885
0.356	1.8087096
0.358	1.8075505
0.360	1.8064107
0.362	1.8052896
0.364	1.8041869
0.366	1.8031024
0.368	1.8020355
0.370	1.8009857
0.372	1.7999530
0.374	1.7989366
0.376	1.7979366
0.378	1.7969522
0.380	1.7959834
0.382	1.7950299
0.384	1.7940911
0.386	1.7931670
0.388	1.7922571
0.390	1.7913611
0.392	1.7904788
0.394	1.7896099
0.396	1.7887541
0.398	1.7879113
0.400	1.7870810
0.402	1.7862631
0.404	1.7854573
0.406	1.7846633
0.408	1.7838811
0.410	1.7831103
0.412	1.7823505
0.414	1.7816019
0.416	1.7808640
0.418	1.7801367
0.420	1.7794197
0.422	1.7787129
0.424	1.7780161
0.426	1.7773291
0.428	1.7766516
0.430	1.7759837
0.432	1.7753250
0.434	1.7746753
0.436	1.7740345
0.438	1.7734026
0.440	1.7727792
0.442	1.7721642
0.444	1.7715577
0.446	1.7709591
0.448	1.7703687
0.450	1.7697860
0.452	1.7692110
0.454	1.7686437
0.456	1.7680838
0.458	1.7675313
0.460	1.7669859
0.462	1.7664475
0.464	1.7659162
0.466	1.7653917
0.468	1.7648739
0.470	1.7643626
0.472	1.7638578
0.474	1.7633594
0.476	1.7628673
0.478	1.7623814
0.480	1.7619015
0.482	1.7614276
0.484	1.7609595
0.486	1.7604972
0.488	1.7600406
0.490	1.7595897
0.492	1.7591441
0.494	1.7587040
0.496	1.7582691
0.498	1.7578394
0.500	1.7574150
0.502	1.7569957
0.504	1.7565812
0.506	1.7561717
0.508	1.7557670
0.510	1.7553670
0.512	1.7549719
0.514	1.7545812
0.516	1.7541951
0.518	1.7538134
0.520	1.7534362
0.522	1.7530632
0.524	1.7526946
0.526	1.7523301
0.528	1.7519697
0.530	1.7516135
0.532	1.7512612
0.534	1.7509129
0.536	1.7505685
0.538	1.7502279
0.540	1.7498912
0.542	1.7495581
0.544	1.7492286
0.546	1.7489028
0.548	1.7485806
0.550	1.7482619
0.552	1.7479466
0.554	1.7476348
0.556	1.7473263
0.558	1.7470211
0.560	1.7467191
0.562	1.7464204
0.564	1.7461249
0.566	1.7458324
0.568	1.7455431
0.570	1.7452569
0.572	1.7449735
0.574	1.7446933
0.576	1.7444159
0.578	1.7441412
0.580	1.7438695
0.582	1.7436006
0.584	1.7433345
0.586	1.7430711
0.588	1.7428104
0.590	1.7425522
0.592	1.7422967
0.594	1.7420439
0.596	1.7417934
0.598	1.7415456
0.600	1.7413002
0.602	1.7410573
0.604	1.7408167
0.606	1.7405785
0.608	1.7403427
0.610	1.7401092
0.612	1.7398780
0.614	1.7396490
0.616	1.7394223
0.618	1.7391977
0.620	1.7389754
0.622	1.7387552
0.624	1.7385371
0.626	1.7383211
0.628	1.7381071
0.630	1.7378951
0.632	1.7376852
0.634	1.7374773
0.636	1.7372713
0.638	1.7370673
0.640	1.7368652
0.642	1.7366649
0.644	1.7364665
0.646	1.7362700
0.648	1.7360753
0.650	1.7358823
0.652	1.7356912
0.654	1.7355018
0.656	1.7353141
0.658	1.7351282
0.660	1.7349439
0.662	1.7347612
0.664	1.7345803
0.666	1.7344009
0.668	1.7342232
0.670	1.7340470
0.672	1.7338725
0.674	1.7336994
0.676	1.7335280
0.678	1.7333580
0.680	1.7331896
0.682	1.7330226
0.684	1.7328570
0.686	1.7326930
0.688	1.7325302
0.690	1.7323691
0.692	1.7322092
0.694	1.7320508
0.696	1.7318937
0.698	1.7317379
0.700	1.7315835
0.702	1.7314303
0.704	1.7312785
0.706	1.7311280
0.708	1.7309788
0.710	1.7308308
0.712	1.7306840
0.714	1.7305386
0.716	1.7303942
0.718	1.7302512
0.720	1.7301093
0.722	1.7299687
0.724	1.7298291
0.726	1.7296907
0.728	1.7295535
0.730	1.7294173
0.732	1.7292823
0.734	1.7291484
0.736	1.7290155
0.738	1.7288837
0.740	1.7287531
0.742	1.7286235
0.744	1.7284949
0.746	1.7283673
0.748	1.7282408
0.750	1.7281153
0.752	1.7279907
0.754	1.7278672
0.756	1.7277447
0.758	1.7276231
0.760	1.7275026
0.762	1.7273829
0.764	1.7272642
0.766	1.7271464
0.768	1.7270294
0.770	1.7269135
0.772	1.7267984
0.774	1.7266842
0.776	1.7265710
0.778	1.7264585
0.780	1.7263470
0.782	1.7262362
0.784	1.7261263
0.786	1.7260174
0.788	1.7259091
0.790	1.7258017
0.792	1.7256953
0.794	1.7255894
0.796	1.7254845
0.798	1.7253803
0.800	1.7252770
0.802	1.7251743
0.804	1.7250724
0.806	1.7249713
0.808	1.7248710
0.810	1.7247714
0.812	1.7246726
0.814	1.7245743
0.816	1.7244769
0.818	1.7243803
0.820	1.7242842
0.822	1.7241889
0.824	1.7240943
0.826	1.7240003
0.828	1.7239071
0.830	1.7238146
0.832	1.7237227
0.834	1.7236314
0.836	1.7235408
0.838	1.7234509
0.840	1.7233616
0.842	1.7232729
0.844	1.7231850
0.846	1.7230974
0.848	1.7230107
0.850	1.7229245
0.852	1.7228389
0.854	1.7227540
0.856	1.7226696
0.858	1.7225858
0.860	1.7225026
0.862	1.7224200
0.864	1.7223378
0.866	1.7222564
0.868	1.7221755
0.870	1.7220951
0.872	1.7220153
0.874	1.7219360
0.876	1.7218573
0.878	1.7217791
0.880	1.7217015
0.882	1.7216244
0.884	1.7215477
0.886	1.7214717
0.888	1.7213961
0.890	1.7213210
0.892	1.7212465
0.894	1.7211725
0.896	1.7210988
0.898	1.7210257
0.900	1.7209532
0.902	1.7208811
0.904	1.7208095
0.906	1.7207383
0.908	1.7206676
0.910	1.7205974
0.912	1.7205276
0.914	1.7204584
0.916	1.7203895
0.918	1.7203210
0.920	1.7202531
0.922	1.7201856
0.924	1.7201185
0.926	1.7200519
0.928	1.7199857
0.930	1.7199199
0.932	1.7198546
0.934	1.7197896
0.936	1.7197251
0.938	1.7196610
0.940	1.7195973
0.942	1.7195340
0.944	1.7194711
0.946	1.7194086
0.948	1.7193465
0.950	1.7192848
0.952	1.7192235
0.954	1.7191626
0.956	1.7191020
0.958	1.7190418
0.960	1.7189821
0.962	1.7189226
0.964	1.7188636
0.966	1.7188048
0.968	1.7187465
0.970	1.7186886
0.972	1.7186310
0.974	1.7185737
0.976	1.7185168
0.978	1.7184603
0.980	1.7184040
0.982	1.7183483
0.984	1.7182927
0.986	1.7182375
0.988	1.7181827
0.990	1.7181281
0.992	1.7180740
0.994	1.7180201
0.996	1.7179666
0.998	1.7179133
1.000	1.7178605
