Material: main / GaSe / Chen-nk-e
Optical constants. C.-W. Chen, T.-T. Tang, S.-H. Lin, J. Y. Huang, C.-S. Chang, P.-K. Chung, S.-T. Yen, C.-L. Pan. Optical properties and potential applications of É›-GaSe at terahertz frequencies. J. Opt. Soc. Am. B 26, A58-A65 (2009) [Calculation script (Python)]
Comments: Extraordinary ray (e)
Conditions: {"direction": "e"}
wavelength (um)	n	k
2.9979e+00	2.4080e+00	3.7383e-07
3.0735e+00	2.4076e+00	4.0311e-07
3.1511e+00	2.4072e+00	4.3469e-07
3.2305e+00	2.4068e+00	4.6876e-07
3.3120e+00	2.4064e+00	5.0551e-07
3.3955e+00	2.4061e+00	5.4516e-07
3.4812e+00	2.4058e+00	5.8793e-07
3.5690e+00	2.4054e+00	6.3408e-07
3.6590e+00	2.4051e+00	6.8387e-07
3.7513e+00	2.4048e+00	7.3759e-07
3.8459e+00	2.4045e+00	7.9556e-07
3.9429e+00	2.4042e+00	8.5812e-07
4.0423e+00	2.4040e+00	9.2564e-07
4.1443e+00	2.4037e+00	9.9851e-07
4.2488e+00	2.4034e+00	1.0772e-06
4.3560e+00	2.4032e+00	1.1621e-06
4.4658e+00	2.4029e+00	1.2538e-06
4.5785e+00	2.4027e+00	1.3527e-06
4.6939e+00	2.4025e+00	1.4596e-06
4.8123e+00	2.4022e+00	1.5750e-06
4.9337e+00	2.4020e+00	1.6996e-06
5.0581e+00	2.4018e+00	1.8343e-06
5.1857e+00	2.4016e+00	1.9797e-06
5.3165e+00	2.4014e+00	2.1369e-06
5.4506e+00	2.4012e+00	2.3066e-06
5.5880e+00	2.4010e+00	2.4901e-06
5.7290e+00	2.4008e+00	2.6885e-06
5.8735e+00	2.4006e+00	2.9029e-06
6.0216e+00	2.4004e+00	3.1347e-06
6.1735e+00	2.4002e+00	3.3854e-06
6.3292e+00	2.4000e+00	3.6565e-06
6.4888e+00	2.3998e+00	3.9498e-06
6.6524e+00	2.3996e+00	4.2672e-06
6.8202e+00	2.3994e+00	4.6106e-06
6.9922e+00	2.3992e+00	4.9824e-06
7.1686e+00	2.3990e+00	5.3850e-06
7.3494e+00	2.3987e+00	5.8210e-06
7.5348e+00	2.3985e+00	6.2933e-06
7.7248e+00	2.3983e+00	6.8051e-06
7.9196e+00	2.3981e+00	7.3598e-06
8.1194e+00	2.3978e+00	7.9612e-06
8.3241e+00	2.3976e+00	8.6136e-06
8.5341e+00	2.3974e+00	9.3214e-06
8.7493e+00	2.3971e+00	1.0090e-05
8.9700e+00	2.3968e+00	1.0924e-05
9.1962e+00	2.3966e+00	1.1830e-05
9.4282e+00	2.3963e+00	1.2814e-05
9.6659e+00	2.3960e+00	1.3884e-05
9.9097e+00	2.3957e+00	1.5049e-05
1.0160e+01	2.3954e+00	1.6316e-05
1.0416e+01	2.3950e+00	1.7695e-05
1.0679e+01	2.3947e+00	1.9198e-05
1.0948e+01	2.3943e+00	2.0836e-05
1.1224e+01	2.3940e+00	2.2622e-05
1.1507e+01	2.3936e+00	2.4572e-05
1.1797e+01	2.3931e+00	2.6702e-05
1.2095e+01	2.3927e+00	2.9030e-05
1.2400e+01	2.3922e+00	3.1577e-05
1.2713e+01	2.3917e+00	3.4365e-05
1.3033e+01	2.3912e+00	3.7420e-05
1.3362e+01	2.3907e+00	4.0771e-05
1.3699e+01	2.3901e+00	4.4449e-05
1.4045e+01	2.3895e+00	4.8492e-05
1.4399e+01	2.3888e+00	5.2940e-05
1.4762e+01	2.3881e+00	5.7841e-05
1.5134e+01	2.3874e+00	6.3245e-05
1.5516e+01	2.3866e+00	6.9215e-05
1.5907e+01	2.3858e+00	7.5817e-05
1.6308e+01	2.3849e+00	8.3131e-05
1.6720e+01	2.3839e+00	9.1247e-05
1.7141e+01	2.3829e+00	1.0027e-04
1.7574e+01	2.3818e+00	1.1031e-04
1.8017e+01	2.3806e+00	1.2152e-04
1.8471e+01	2.3794e+00	1.3405e-04
1.8937e+01	2.3780e+00	1.4810e-04
1.9415e+01	2.3766e+00	1.6389e-04
1.9905e+01	2.3750e+00	1.8167e-04
2.0407e+01	2.3733e+00	2.0176e-04
2.0921e+01	2.3715e+00	2.2453e-04
2.1449e+01	2.3695e+00	2.5042e-04
2.1990e+01	2.3673e+00	2.7998e-04
2.2544e+01	2.3649e+00	3.1384e-04
2.3113e+01	2.3623e+00	3.5282e-04
2.3696e+01	2.3594e+00	3.9788e-04
2.4294e+01	2.3563e+00	4.5026e-04
2.4906e+01	2.3528e+00	5.1149e-04
2.5534e+01	2.3490e+00	5.8351e-04
2.6178e+01	2.3447e+00	6.6883e-04
2.6839e+01	2.3398e+00	7.7068e-04
2.7516e+01	2.3344e+00	8.9333e-04
2.8210e+01	2.3282e+00	1.0425e-03
2.8921e+01	2.3212e+00	1.2259e-03
2.9651e+01	2.3131e+00	1.4542e-03
3.0398e+01	2.3036e+00	1.7428e-03
3.1165e+01	2.2925e+00	2.1135e-03
3.1951e+01	2.2793e+00	2.5996e-03
3.2757e+01	2.2633e+00	3.2520e-03
3.3583e+01	2.2436e+00	4.1534e-03
3.4430e+01	2.2188e+00	5.4438e-03
3.5298e+01	2.1865e+00	7.3763e-03
3.6189e+01	2.1429e+00	1.0448e-02
3.7101e+01	2.0809e+00	1.5743e-02
3.8037e+01	1.9855e+00	2.6036e-02
3.8996e+01	1.8202e+00	5.0389e-02
3.9980e+01	1.4588e+00	1.3707e-01
4.0988e+01	5.9203e-01	1.1637e+00
4.2022e+01	2.7827e+00	4.3092e+00
4.3082e+01	3.9270e+00	3.4465e-01
4.4168e+01	3.2407e+00	9.4293e-02
4.5282e+01	2.9887e+00	4.4312e-02
4.6425e+01	2.8582e+00	2.6010e-02
4.7595e+01	2.7785e+00	1.7253e-02
4.8796e+01	2.7248e+00	1.2367e-02
5.0026e+01	2.6862e+00	9.3534e-03
5.1288e+01	2.6571e+00	7.3577e-03
5.2582e+01	2.6345e+00	5.9641e-03
5.3908e+01	2.6163e+00	4.9502e-03
5.5268e+01	2.6015e+00	4.1880e-03
5.6661e+01	2.5892e+00	3.5993e-03
5.8091e+01	2.5788e+00	3.1345e-03
5.9556e+01	2.5699e+00	2.7603e-03
6.1058e+01	2.5622e+00	2.4543e-03
6.2598e+01	2.5555e+00	2.2004e-03
6.4176e+01	2.5497e+00	1.9872e-03
6.5795e+01	2.5445e+00	1.8062e-03
6.7454e+01	2.5399e+00	1.6510e-03
6.9156e+01	2.5357e+00	1.5168e-03
7.0900e+01	2.5320e+00	1.3998e-03
7.2688e+01	2.5287e+00	1.2971e-03
7.4521e+01	2.5257e+00	1.2064e-03
7.6401e+01	2.5229e+00	1.1258e-03
7.8328e+01	2.5204e+00	1.0538e-03
8.0303e+01	2.5181e+00	9.8912e-04
8.2329e+01	2.5160e+00	9.3078e-04
8.4405e+01	2.5141e+00	8.7793e-04
8.6534e+01	2.5123e+00	8.2985e-04
8.8716e+01	2.5107e+00	7.8596e-04
9.0954e+01	2.5092e+00	7.4575e-04
9.3248e+01	2.5078e+00	7.0880e-04
9.5599e+01	2.5065e+00	6.7473e-04
9.8011e+01	2.5052e+00	6.4324e-04
1.0048e+02	2.5041e+00	6.1405e-04
1.0302e+02	2.5031e+00	5.8692e-04
1.0561e+02	2.5021e+00	5.6165e-04
1.0828e+02	2.5012e+00	5.3806e-04
1.1101e+02	2.5003e+00	5.1598e-04
1.1381e+02	2.4995e+00	4.9529e-04
1.1668e+02	2.4988e+00	4.7585e-04
1.1962e+02	2.4981e+00	4.5756e-04
1.2264e+02	2.4974e+00	4.4032e-04
1.2573e+02	2.4968e+00	4.2405e-04
1.2890e+02	2.4962e+00	4.0866e-04
1.3215e+02	2.4957e+00	3.9408e-04
1.3549e+02	2.4951e+00	3.8026e-04
1.3891e+02	2.4947e+00	3.6713e-04
1.4241e+02	2.4942e+00	3.5466e-04
1.4600e+02	2.4938e+00	3.4278e-04
1.4968e+02	2.4934e+00	3.3146e-04
1.5346e+02	2.4930e+00	3.2066e-04
1.5733e+02	2.4926e+00	3.1034e-04
1.6130e+02	2.4923e+00	3.0048e-04
1.6536e+02	2.4920e+00	2.9105e-04
1.6953e+02	2.4917e+00	2.8201e-04
1.7381e+02	2.4914e+00	2.7335e-04
1.7819e+02	2.4911e+00	2.6504e-04
1.8269e+02	2.4908e+00	2.5706e-04
1.8730e+02	2.4906e+00	2.4939e-04
1.9202e+02	2.4904e+00	2.4202e-04
1.9686e+02	2.4901e+00	2.3493e-04
2.0183e+02	2.4899e+00	2.2810e-04
2.0692e+02	2.4897e+00	2.2152e-04
2.1214e+02	2.4896e+00	2.1518e-04
2.1749e+02	2.4894e+00	2.0906e-04
2.2297e+02	2.4892e+00	2.0316e-04
2.2860e+02	2.4891e+00	1.9746e-04
2.3436e+02	2.4889e+00	1.9195e-04
2.4027e+02	2.4888e+00	1.8663e-04
2.4633e+02	2.4886e+00	1.8149e-04
2.5254e+02	2.4885e+00	1.7652e-04
2.5891e+02	2.4884e+00	1.7170e-04
2.6544e+02	2.4883e+00	1.6704e-04
2.7214e+02	2.4882e+00	1.6253e-04
2.7900e+02	2.4881e+00	1.5816e-04
2.8604e+02	2.4880e+00	1.5393e-04
2.9325e+02	2.4879e+00	1.4982e-04
3.0065e+02	2.4878e+00	1.4584e-04
3.0823e+02	2.4877e+00	1.4198e-04
3.1601e+02	2.4876e+00	1.3824e-04
3.2398e+02	2.4875e+00	1.3460e-04
3.3215e+02	2.4875e+00	1.3107e-04
3.4052e+02	2.4874e+00	1.2765e-04
3.4911e+02	2.4873e+00	1.2432e-04
3.5792e+02	2.4873e+00	1.2109e-04
3.6695e+02	2.4872e+00	1.1796e-04
3.7620e+02	2.4872e+00	1.1491e-04
3.8569e+02	2.4871e+00	1.1194e-04
3.9542e+02	2.4871e+00	1.0906e-04
4.0539e+02	2.4870e+00	1.0626e-04
4.1561e+02	2.4870e+00	1.0354e-04
4.2609e+02	2.4869e+00	1.0089e-04
4.3684e+02	2.4869e+00	9.8319e-05
4.4786e+02	2.4868e+00	9.5814e-05
4.5915e+02	2.4868e+00	9.3377e-05
4.7073e+02	2.4868e+00	9.1006e-05
4.8261e+02	2.4867e+00	8.8698e-05
4.9478e+02	2.4867e+00	8.6453e-05
5.0726e+02	2.4867e+00	8.4267e-05
5.2005e+02	2.4866e+00	8.2139e-05
5.3317e+02	2.4866e+00	8.0068e-05
5.4661e+02	2.4866e+00	7.8051e-05
5.6040e+02	2.4866e+00	7.6088e-05
5.7454e+02	2.4865e+00	7.4175e-05
5.8903e+02	2.4865e+00	7.2313e-05
6.0388e+02	2.4865e+00	7.0499e-05
6.1911e+02	2.4865e+00	6.8733e-05
6.3473e+02	2.4865e+00	6.7012e-05
6.5073e+02	2.4864e+00	6.5336e-05
6.6715e+02	2.4864e+00	6.3703e-05
6.8397e+02	2.4864e+00	6.2112e-05
7.0122e+02	2.4864e+00	6.0562e-05
7.1891e+02	2.4864e+00	5.9051e-05
7.3704e+02	2.4864e+00	5.7580e-05
7.5563e+02	2.4863e+00	5.6146e-05
7.7469e+02	2.4863e+00	5.4748e-05
7.9423e+02	2.4863e+00	5.3386e-05
8.1426e+02	2.4863e+00	5.2059e-05
8.3479e+02	2.4863e+00	5.0765e-05
8.5585e+02	2.4863e+00	4.9504e-05
8.7743e+02	2.4863e+00	4.8275e-05
8.9956e+02	2.4863e+00	4.7077e-05
9.2225e+02	2.4863e+00	4.5909e-05
9.4551e+02	2.4862e+00	4.4771e-05
9.6936e+02	2.4862e+00	4.3661e-05
9.9381e+02	2.4862e+00	4.2579e-05
1.0189e+03	2.4862e+00	4.1525e-05
1.0446e+03	2.4862e+00	4.0496e-05
1.0709e+03	2.4862e+00	3.9494e-05
1.0979e+03	2.4862e+00	3.8517e-05
1.1256e+03	2.4862e+00	3.7564e-05
1.1540e+03	2.4862e+00	3.6635e-05
1.1831e+03	2.4862e+00	3.5729e-05
1.2129e+03	2.4862e+00	3.4846e-05
1.2435e+03	2.4862e+00	3.3985e-05
1.2749e+03	2.4862e+00	3.3145e-05
1.3071e+03	2.4862e+00	3.2326e-05
1.3400e+03	2.4862e+00	3.1528e-05
1.3738e+03	2.4862e+00	3.0749e-05
1.4085e+03	2.4862e+00	2.9990e-05
1.4440e+03	2.4861e+00	2.9250e-05
1.4804e+03	2.4861e+00	2.8528e-05
