Material: main / GaSe / Chen-nk-o
Optical constants. C.-W. Chen, T.-T. Tang, S.-H. Lin, J. Y. Huang, C.-S. Chang, P.-K. Chung, S.-T. Yen, C.-L. Pan. Optical properties and potential applications of É›-GaSe at terahertz frequencies. J. Opt. Soc. Am. B 26, A58-A65 (2009) [Calculation script (Python)]
Comments: Ordinary ray (o)
Conditions: {"direction": "o"}
wavelength (um)	n	k
2.9979e+00	2.7207e+00	2.0031e-06
3.0735e+00	2.7202e+00	2.1598e-06
3.1511e+00	2.7197e+00	2.3289e-06
3.2305e+00	2.7192e+00	2.5112e-06
3.3120e+00	2.7187e+00	2.7078e-06
3.3955e+00	2.7182e+00	2.9200e-06
3.4812e+00	2.7177e+00	3.1488e-06
3.5690e+00	2.7173e+00	3.3956e-06
3.6590e+00	2.7168e+00	3.6618e-06
3.7513e+00	2.7164e+00	3.9491e-06
3.8459e+00	2.7159e+00	4.2590e-06
3.9429e+00	2.7155e+00	4.5934e-06
4.0423e+00	2.7150e+00	4.9542e-06
4.1443e+00	2.7146e+00	5.3435e-06
4.2488e+00	2.7141e+00	5.7637e-06
4.3560e+00	2.7137e+00	6.2172e-06
4.4658e+00	2.7132e+00	6.7067e-06
4.5785e+00	2.7128e+00	7.2350e-06
4.6939e+00	2.7123e+00	7.8054e-06
4.8123e+00	2.7118e+00	8.4212e-06
4.9337e+00	2.7113e+00	9.0861e-06
5.0581e+00	2.7109e+00	9.8040e-06
5.1857e+00	2.7104e+00	1.0579e-05
5.3165e+00	2.7099e+00	1.1417e-05
5.4506e+00	2.7093e+00	1.2321e-05
5.5880e+00	2.7088e+00	1.3299e-05
5.7290e+00	2.7082e+00	1.4355e-05
5.8735e+00	2.7077e+00	1.5496e-05
6.0216e+00	2.7071e+00	1.6729e-05
6.1735e+00	2.7065e+00	1.8062e-05
6.3292e+00	2.7059e+00	1.9503e-05
6.4888e+00	2.7052e+00	2.1061e-05
6.6524e+00	2.7045e+00	2.2746e-05
6.8202e+00	2.7038e+00	2.4569e-05
6.9922e+00	2.7031e+00	2.6541e-05
7.1686e+00	2.7023e+00	2.8675e-05
7.3494e+00	2.7015e+00	3.0985e-05
7.5348e+00	2.7007e+00	3.3486e-05
7.7248e+00	2.6998e+00	3.6194e-05
7.9196e+00	2.6989e+00	3.9127e-05
8.1194e+00	2.6979e+00	4.2305e-05
8.3241e+00	2.6969e+00	4.5749e-05
8.5341e+00	2.6959e+00	4.9483e-05
8.7493e+00	2.6947e+00	5.3531e-05
8.9700e+00	2.6936e+00	5.7923e-05
9.1962e+00	2.6923e+00	6.2690e-05
9.4282e+00	2.6911e+00	6.7863e-05
9.6659e+00	2.6897e+00	7.3482e-05
9.9097e+00	2.6883e+00	7.9587e-05
1.0160e+01	2.6868e+00	8.6222e-05
1.0416e+01	2.6852e+00	9.3438e-05
1.0679e+01	2.6835e+00	1.0129e-04
1.0948e+01	2.6817e+00	1.0983e-04
1.1224e+01	2.6799e+00	1.1914e-04
1.1507e+01	2.6779e+00	1.2928e-04
1.1797e+01	2.6758e+00	1.4034e-04
1.2095e+01	2.6736e+00	1.5240e-04
1.2400e+01	2.6713e+00	1.6558e-04
1.2713e+01	2.6688e+00	1.7997e-04
1.3033e+01	2.6662e+00	1.9571e-04
1.3362e+01	2.6634e+00	2.1294e-04
1.3699e+01	2.6605e+00	2.3181e-04
1.4045e+01	2.6573e+00	2.5249e-04
1.4399e+01	2.6540e+00	2.7520e-04
1.4762e+01	2.6505e+00	3.0013e-04
1.5134e+01	2.6468e+00	3.2756e-04
1.5516e+01	2.6428e+00	3.5775e-04
1.5907e+01	2.6385e+00	3.9104e-04
1.6308e+01	2.6340e+00	4.2778e-04
1.6720e+01	2.6291e+00	4.6840e-04
1.7141e+01	2.6240e+00	5.1336e-04
1.7574e+01	2.6184e+00	5.6322e-04
1.8017e+01	2.6125e+00	6.1860e-04
1.8471e+01	2.6062e+00	6.8023e-04
1.8937e+01	2.5994e+00	7.4895e-04
1.9415e+01	2.5921e+00	8.2573e-04
1.9905e+01	2.5842e+00	9.1172e-04
2.0407e+01	2.5757e+00	1.0083e-03
2.0921e+01	2.5666e+00	1.1169e-03
2.1449e+01	2.5567e+00	1.2396e-03
2.1990e+01	2.5460e+00	1.3785e-03
2.2544e+01	2.5344e+00	1.5363e-03
2.3113e+01	2.5217e+00	1.7163e-03
2.3696e+01	2.5079e+00	1.9223e-03
2.4294e+01	2.4928e+00	2.1592e-03
2.4906e+01	2.4762e+00	2.4329e-03
2.5534e+01	2.4579e+00	2.7508e-03
2.6178e+01	2.4377e+00	3.1222e-03
2.6839e+01	2.4154e+00	3.5588e-03
2.7516e+01	2.3904e+00	4.0759e-03
2.8210e+01	2.3625e+00	4.6932e-03
2.8921e+01	2.3310e+00	5.4371e-03
2.9651e+01	2.2954e+00	6.3428e-03
3.0398e+01	2.2546e+00	7.4592e-03
3.1165e+01	2.2076e+00	8.8548e-03
3.1951e+01	2.1530e+00	1.0629e-02
3.2757e+01	2.0885e+00	1.2930e-02
3.3583e+01	2.0114e+00	1.5993e-02
3.4430e+01	1.9175e+00	2.0201e-02
3.5298e+01	1.8002e+00	2.6241e-02
3.6189e+01	1.6488e+00	3.5476e-02
3.7101e+01	1.4431e+00	5.1110e-02
3.8037e+01	1.1378e+00	8.3606e-02
3.8996e+01	5.7086e-01	2.2110e-01
3.9980e+01	1.6701e-01	1.0403e+00
4.0988e+01	1.4739e-01	1.7047e+00
4.2022e+01	1.6498e-01	2.3623e+00
4.3082e+01	2.1435e-01	3.1375e+00
4.4168e+01	3.3111e-01	4.2034e+00
4.5282e+01	6.9649e-01	6.0377e+00
4.6425e+01	3.8171e+00	1.0989e+01
4.7595e+01	9.7923e+00	1.7822e+00
4.8796e+01	6.8239e+00	4.5740e-01
5.0026e+01	5.7135e+00	2.1968e-01
5.1288e+01	5.1213e+00	1.3272e-01
5.2582e+01	4.7488e+00	9.0368e-02
5.3908e+01	4.4915e+00	6.6245e-02
5.5268e+01	4.3025e+00	5.1063e-02
5.6661e+01	4.1578e+00	4.0821e-02
5.8091e+01	4.0432e+00	3.3550e-02
5.9556e+01	3.9504e+00	2.8181e-02
6.1058e+01	3.8736e+00	2.4091e-02
6.2598e+01	3.8091e+00	2.0893e-02
6.4176e+01	3.7542e+00	1.8341e-02
6.5795e+01	3.7069e+00	1.6267e-02
6.7454e+01	3.6659e+00	1.4556e-02
6.9156e+01	3.6299e+00	1.3125e-02
7.0900e+01	3.5981e+00	1.1914e-02
7.2688e+01	3.5699e+00	1.0879e-02
7.4521e+01	3.5448e+00	9.9856e-03
7.6401e+01	3.5221e+00	9.2090e-03
7.8328e+01	3.5018e+00	8.5284e-03
8.0303e+01	3.4833e+00	7.9281e-03
8.2329e+01	3.4666e+00	7.3954e-03
8.4405e+01	3.4513e+00	6.9199e-03
8.6534e+01	3.4374e+00	6.4933e-03
8.8716e+01	3.4246e+00	6.1088e-03
9.0954e+01	3.4128e+00	5.7607e-03
9.3248e+01	3.4020e+00	5.4444e-03
9.5599e+01	3.3920e+00	5.1557e-03
9.8011e+01	3.3828e+00	4.8913e-03
1.0048e+02	3.3742e+00	4.6485e-03
1.0302e+02	3.3663e+00	4.4248e-03
1.0561e+02	3.3589e+00	4.2180e-03
1.0828e+02	3.3521e+00	4.0264e-03
1.1101e+02	3.3457e+00	3.8484e-03
1.1381e+02	3.3397e+00	3.6826e-03
1.1668e+02	3.3341e+00	3.5279e-03
1.1962e+02	3.3289e+00	3.3831e-03
1.2264e+02	3.3241e+00	3.2475e-03
1.2573e+02	3.3195e+00	3.1201e-03
1.2890e+02	3.3152e+00	3.0003e-03
1.3215e+02	3.3112e+00	2.8873e-03
1.3549e+02	3.3074e+00	2.7808e-03
1.3891e+02	3.3039e+00	2.6800e-03
1.4241e+02	3.3005e+00	2.5846e-03
1.4600e+02	3.2974e+00	2.4942e-03
1.4968e+02	3.2944e+00	2.4083e-03
1.5346e+02	3.2916e+00	2.3267e-03
1.5733e+02	3.2890e+00	2.2491e-03
1.6130e+02	3.2865e+00	2.1752e-03
1.6536e+02	3.2842e+00	2.1046e-03
1.6953e+02	3.2820e+00	2.0373e-03
1.7381e+02	3.2799e+00	1.9730e-03
1.7819e+02	3.2779e+00	1.9116e-03
1.8269e+02	3.2760e+00	1.8527e-03
1.8730e+02	3.2742e+00	1.7964e-03
1.9202e+02	3.2726e+00	1.7424e-03
1.9686e+02	3.2710e+00	1.6906e-03
2.0183e+02	3.2695e+00	1.6410e-03
2.0692e+02	3.2680e+00	1.5933e-03
2.1214e+02	3.2667e+00	1.5476e-03
2.1749e+02	3.2654e+00	1.5036e-03
2.2297e+02	3.2642e+00	1.4614e-03
2.2860e+02	3.2630e+00	1.4208e-03
2.3436e+02	3.2619e+00	1.3819e-03
2.4027e+02	3.2608e+00	1.3445e-03
2.4633e+02	3.2598e+00	1.3085e-03
2.5254e+02	3.2589e+00	1.2741e-03
2.5891e+02	3.2579e+00	1.2410e-03
2.6544e+02	3.2571e+00	1.2094e-03
2.7214e+02	3.2562e+00	1.1792e-03
2.7900e+02	3.2554e+00	1.1504e-03
2.8604e+02	3.2546e+00	1.1230e-03
2.9325e+02	3.2539e+00	1.0970e-03
3.0065e+02	3.2531e+00	1.0726e-03
3.0823e+02	3.2524e+00	1.0498e-03
3.1601e+02	3.2517e+00	1.0288e-03
3.2398e+02	3.2511e+00	1.0096e-03
3.3215e+02	3.2504e+00	9.9265e-04
3.4052e+02	3.2497e+00	9.7816e-04
3.4911e+02	3.2491e+00	9.6661e-04
3.5792e+02	3.2484e+00	9.5864e-04
3.6695e+02	3.2477e+00	9.5515e-04
3.7620e+02	3.2470e+00	9.5745e-04
3.8569e+02	3.2463e+00	9.6746e-04
3.9542e+02	3.2455e+00	9.8809e-04
4.0539e+02	3.2446e+00	1.0239e-03
4.1561e+02	3.2437e+00	1.0825e-03
4.2609e+02	3.2425e+00	1.1767e-03
4.3684e+02	3.2412e+00	1.3307e-03
4.4786e+02	3.2394e+00	1.5926e-03
4.5915e+02	3.2370e+00	2.0705e-03
4.7073e+02	3.2334e+00	3.0491e-03
4.8261e+02	3.2274e+00	5.4758e-03
4.9478e+02	3.2154e+00	1.3989e-02
5.0726e+02	3.2063e+00	6.4478e-02
5.2005e+02	3.2921e+00	4.2661e-02
5.3317e+02	3.2760e+00	1.1170e-02
5.4661e+02	3.2664e+00	5.0391e-03
5.6040e+02	3.2613e+00	3.0050e-03
5.7454e+02	3.2582e+00	2.0917e-03
5.8903e+02	3.2561e+00	1.6011e-03
6.0388e+02	3.2546e+00	1.3045e-03
6.1911e+02	3.2535e+00	1.1092e-03
6.3473e+02	3.2526e+00	9.7212e-04
6.5073e+02	3.2518e+00	8.7100e-04
6.6715e+02	3.2512e+00	7.9331e-04
6.8397e+02	3.2507e+00	7.3160e-04
7.0122e+02	3.2502e+00	6.8120e-04
7.1891e+02	3.2498e+00	6.3906e-04
7.3704e+02	3.2495e+00	6.0311e-04
7.5563e+02	3.2492e+00	5.7193e-04
7.7469e+02	3.2489e+00	5.4448e-04
7.9423e+02	3.2486e+00	5.2001e-04
8.1426e+02	3.2484e+00	4.9797e-04
8.3479e+02	3.2482e+00	4.7792e-04
8.5585e+02	3.2480e+00	4.5955e-04
8.7743e+02	3.2478e+00	4.4258e-04
8.9956e+02	3.2477e+00	4.2683e-04
9.2225e+02	3.2475e+00	4.1212e-04
9.4551e+02	3.2474e+00	3.9832e-04
9.6936e+02	3.2472e+00	3.8532e-04
9.9381e+02	3.2471e+00	3.7304e-04
1.0189e+03	3.2470e+00	3.6139e-04
1.0446e+03	3.2469e+00	3.5032e-04
1.0709e+03	3.2468e+00	3.3977e-04
1.0979e+03	3.2467e+00	3.2969e-04
1.1256e+03	3.2466e+00	3.2005e-04
1.1540e+03	3.2465e+00	3.1081e-04
1.1831e+03	3.2465e+00	3.0194e-04
1.2129e+03	3.2464e+00	2.9341e-04
1.2435e+03	3.2463e+00	2.8520e-04
1.2749e+03	3.2462e+00	2.7730e-04
1.3071e+03	3.2462e+00	2.6967e-04
1.3400e+03	3.2461e+00	2.6231e-04
1.3738e+03	3.2461e+00	2.5520e-04
1.4085e+03	3.2460e+00	2.4832e-04
1.4440e+03	3.2460e+00	2.4167e-04
1.4804e+03	3.2459e+00	2.3524e-04
