Material: main / Xe / Mareev
Optical constants. E. Mareev, V. Aleshkevich, F. Potemkin, V. Bagratashvili, N. Minaev, V. Gordienko. Anomalous behavior of nonlinear refractive indexes of CO2 and Xe in supercritical states. Opt. Express 26, 13229 (2018)
Comments: 200 fs, 24 Â°C, atmospheric pressure. Spectral broadening. See the original publication for pressure dependence of n2.
Conditions: {"n2_method": "SB", "pulse_duration": "200e-15", "pressure": 101325, "temperatute": 297}
wavelength (um)	n	2
1.24	6.2e-22
