Material: other / resists / Micro resist ma-N 405, ma-T 1050
Optical constants. S. Sarkar, V. Gupta, M. Kumar, J. Schubert, P.T. Probst, J. Joseph, T.A.F. König, Hybridized guided-mode resonances via colloidal plasmonic self-assembled grating, ACS Appl. Mater. Interfaces, 11, 13752-13760 (2019)(Numerical data kindly provided by Dr. Tobias König)
Comments: Spin-coated negative photoresist ma-N 405 diluted with ma-T 1050 (micro resist technology GmbH) in a 1:1 ratio.
wavelength (um)	n	k
0.3750	1.707319	0.032001
0.3780	1.705700	0.030264
0.3810	1.704120	0.028647
0.3840	1.702576	0.027139
0.3870	1.701068	0.025732
0.3900	1.699595	0.024418
0.3930	1.698156	0.023190
0.3960	1.696749	0.022041
0.3990	1.695373	0.020964
0.4020	1.694029	0.019956
0.4050	1.692714	0.019009
0.4080	1.691428	0.018121
0.4110	1.690170	0.017286
0.4140	1.688939	0.016500
0.4170	1.687735	0.015761
0.4200	1.686557	0.015065
0.4230	1.685403	0.014409
0.4260	1.684274	0.013790
0.4290	1.683169	0.013206
0.4320	1.682086	0.012654
0.4350	1.681026	0.012133
0.4380	1.679987	0.011639
0.4410	1.678969	0.011172
0.4440	1.677972	0.010730
0.4470	1.676996	0.010311
0.4500	1.676038	0.009913
0.4530	1.675100	0.009536
0.4560	1.674180	0.009178
0.4590	1.673277	0.008837
0.4620	1.672393	0.008514
0.4650	1.671525	0.008206
0.4680	1.670675	0.007913
0.4710	1.669840	0.007634
0.4740	1.669021	0.007368
0.4770	1.668218	0.007115
0.4800	1.667429	0.006873
0.4830	1.666656	0.006643
0.4860	1.665896	0.006423
0.4890	1.665150	0.006212
0.4920	1.664418	0.006011
0.4950	1.663700	0.005819
0.4980	1.662994	0.005635
0.5010	1.662301	0.005460
0.5040	1.661620	0.005291
0.5070	1.660951	0.005130
0.5100	1.660295	0.004975
0.5130	1.659649	0.004827
0.5160	1.659015	0.004685
0.5190	1.658392	0.004549
0.5220	1.657779	0.004418
0.5250	1.657177	0.004292
0.5280	1.656585	0.004171
0.5310	1.656003	0.004055
0.5340	1.655431	0.003944
0.5370	1.654869	0.003836
0.5400	1.654315	0.003733
0.5430	1.653772	0.003634
0.5460	1.653236	0.003538
0.5490	1.652710	0.003446
0.5520	1.652192	0.003357
0.5550	1.651683	0.003272
0.5580	1.651182	0.003189
0.5610	1.650689	0.003110
0.5640	1.650203	0.003033
0.5670	1.649726	0.002959
0.5700	1.649256	0.002887
0.5730	1.648793	0.002818
0.5760	1.648337	0.002751
0.5790	1.647889	0.002687
0.5820	1.647447	0.002624
0.5850	1.647012	0.002564
0.5880	1.646584	0.002506
0.5910	1.646163	0.002450
0.5940	1.645747	0.002395
0.5970	1.645338	0.002342
0.6000	1.644935	0.002291
0.6030	1.644538	0.002241
0.6060	1.644147	0.002193
0.6090	1.643762	0.002147
0.6120	1.643383	0.002102
0.6150	1.643008	0.002058
0.6180	1.642640	0.002016
0.6210	1.642276	0.001975
0.6240	1.641918	0.001935
0.6270	1.641565	0.001896
0.6300	1.641217	0.001858
0.6330	1.640875	0.001822
0.6360	1.640536	0.001786
0.6390	1.640203	0.001752
0.6420	1.639874	0.001719
0.6450	1.639550	0.001686
0.6480	1.639230	0.001654
0.6510	1.638915	0.001624
0.6540	1.638604	0.001594
0.6570	1.638298	0.001565
0.6600	1.637995	0.001536
0.6630	1.637697	0.001509
0.6660	1.637402	0.001482
0.6690	1.637112	0.001456
0.6720	1.636825	0.001431
0.6750	1.636543	0.001406
0.6780	1.636263	0.001382
0.6810	1.635988	0.001358
0.6840	1.635717	0.001335
0.6870	1.635448	0.001313
0.6900	1.635184	0.001291
0.6930	1.634923	0.001270
0.6960	1.634665	0.001250
0.6990	1.634410	0.001229
0.7020	1.634159	0.001210
0.7050	1.633911	0.001191
0.7080	1.633666	0.001172
0.7110	1.633424	0.001154
0.7140	1.633185	0.001136
0.7170	1.632949	0.001118
0.7200	1.632716	0.001101
0.7230	1.632486	0.001085
0.7260	1.632259	0.001069
0.7290	1.632035	0.001053
0.7320	1.631813	0.001037
0.7350	1.631594	0.001022
0.7380	1.631378	0.001007
0.7410	1.631165	0.000993
0.7440	1.630954	0.000979
0.7470	1.630745	0.000965
0.7500	1.630539	0.000951
0.7530	1.630336	0.000938
0.7560	1.630135	0.000925
0.7590	1.629936	0.000912
0.7620	1.629739	0.000900
0.7650	1.629545	0.000888
0.7680	1.629354	0.000876
0.7710	1.629164	0.000864
0.7740	1.628977	0.000853
0.7770	1.628791	0.000842
0.7800	1.628608	0.000831
0.7830	1.628427	0.000820
0.7860	1.628248	0.000810
0.7890	1.628072	0.000800
0.7920	1.627897	0.000789
0.7950	1.627724	0.000780
0.7980	1.627553	0.000770
0.8010	1.627384	0.000760
0.8040	1.627217	0.000751
0.8070	1.627051	0.000742
0.8100	1.626888	0.000733
0.8130	1.626726	0.000724
0.8160	1.626567	0.000716
0.8190	1.626408	0.000707
0.8220	1.626252	0.000699
0.8250	1.626097	0.000691
0.8280	1.625944	0.000683
0.8310	1.625793	0.000675
0.8340	1.625643	0.000668
0.8370	1.625495	0.000660
0.8400	1.625349	0.000653
0.8430	1.625204	0.000645
0.8460	1.625060	0.000638
0.8490	1.624918	0.000631
0.8520	1.624778	0.000624
0.8550	1.624639	0.000618
0.8580	1.624502	0.000611
0.8610	1.624366	0.000605
0.8640	1.624231	0.000598
0.8670	1.624098	0.000592
0.8700	1.623966	0.000586
0.8730	1.623835	0.000580
0.8760	1.623706	0.000574
0.8790	1.623578	0.000568
0.8820	1.623452	0.000562
0.8850	1.623327	0.000556
0.8880	1.623203	0.000551
0.8910	1.623080	0.000545
0.8940	1.622958	0.000540
0.8970	1.622838	0.000535
0.9000	1.622719	0.000529
0.9030	1.622601	0.000524
0.9060	1.622484	0.000519
0.9090	1.622369	0.000514
0.9120	1.622254	0.000509
0.9150	1.622141	0.000505
0.9180	1.622029	0.000500
0.9210	1.621918	0.000495
0.9240	1.621808	0.000491
0.9270	1.621699	0.000486
0.9300	1.621591	0.000482
0.9330	1.621484	0.000477
0.9360	1.621378	0.000473
0.9390	1.621273	0.000469
0.9420	1.621170	0.000465
0.9450	1.621067	0.000461
0.9480	1.620965	0.000456
0.9510	1.620864	0.000452
0.9540	1.620764	0.000449
0.9570	1.620665	0.000445
0.9600	1.620567	0.000441
0.9630	1.620470	0.000437
0.9660	1.620373	0.000433
0.9690	1.620278	0.000430
0.9720	1.620184	0.000426
0.9750	1.620090	0.000423
0.9780	1.619997	0.000419
0.9810	1.619905	0.000416
0.9840	1.619814	0.000412
0.9870	1.619724	0.000409
0.9900	1.619635	0.000406
0.9930	1.619546	0.000402
0.9960	1.619458	0.000399
0.9990	1.619371	0.000396
1.0050	1.619199	0.000390
1.0125	1.618989	0.000382
1.0200	1.618783	0.000375
1.0275	1.618582	0.000368
1.0350	1.618385	0.000361
1.0425	1.618192	0.000355
1.0500	1.618004	0.000348
1.0575	1.617819	0.000342
1.0650	1.617639	0.000336
1.0725	1.617462	0.000331
1.0800	1.617288	0.000325
1.0875	1.617119	0.000319
1.0950	1.616953	0.000314
1.1025	1.616790	0.000309
1.1100	1.616630	0.000304
1.1175	1.616474	0.000299
1.1250	1.616321	0.000295
1.1325	1.616171	0.000290
1.1400	1.616023	0.000286
1.1475	1.615879	0.000281
1.1550	1.615738	0.000277
1.1625	1.615599	0.000273
1.1700	1.615463	0.000269
1.1775	1.615329	0.000265
1.1850	1.615198	0.000262
1.1925	1.615070	0.000258
1.2000	1.614943	0.000255
1.2075	1.614820	0.000251
1.2150	1.614698	0.000248
1.2225	1.614579	0.000244
1.2300	1.614462	0.000241
1.2375	1.614347	0.000238
1.2450	1.614234	0.000235
1.2525	1.614123	0.000232
1.2600	1.614014	0.000229
1.2675	1.613907	0.000226
1.2750	1.613802	0.000224
1.2825	1.613699	0.000221
1.2900	1.613597	0.000218
1.2975	1.613497	0.000216
1.3050	1.613399	0.000213
1.3125	1.613303	0.000211
1.3200	1.613208	0.000208
1.3275	1.613115	0.000206
1.3350	1.613024	0.000204
1.3425	1.612934	0.000202
1.3500	1.612845	0.000199
1.3575	1.612758	0.000197
1.3650	1.612673	0.000195
1.3725	1.612588	0.000193
1.3800	1.612505	0.000191
1.3875	1.612424	0.000189
1.3950	1.612344	0.000187
1.4025	1.612265	0.000185
1.4100	1.612187	0.000183
1.4175	1.612111	0.000182
1.4250	1.612036	0.000180
1.4325	1.611962	0.000178
1.4400	1.611889	0.000176
1.4475	1.611817	0.000175
1.4550	1.611746	0.000173
1.4625	1.611677	0.000172
1.4700	1.611608	0.000170
1.4775	1.611541	0.000168
1.4850	1.611474	0.000167
1.4925	1.611409	0.000165
1.5000	1.611344	0.000164
1.5075	1.611281	0.000163
1.5150	1.611218	0.000161
1.5225	1.611157	0.000160
1.5300	1.611096	0.000158
1.5375	1.611036	0.000157
1.5450	1.610977	0.000156
1.5525	1.610919	0.000155
1.5600	1.610862	0.000153
1.5675	1.610805	0.000152
1.5750	1.610749	0.000151
1.5825	1.610695	0.000150
1.5900	1.610641	0.000148
1.5975	1.610587	0.000147
1.6050	1.610535	0.000146
1.6125	1.610483	0.000145
1.6200	1.610432	0.000144
1.6275	1.610381	0.000143
1.6350	1.610331	0.000142
1.6425	1.610282	0.000141
1.6500	1.610234	0.000140
1.6575	1.610186	0.000139
1.6650	1.610139	0.000138
1.6725	1.610093	0.000137
1.6800	1.610047	0.000136
1.6875	1.610002	0.000135
