Material: main / Al2O3 / Rodriguez de Marcos
Optical constants. L. V. Rodriguez de Marcos, M. Christophersen, M. F. Batkis, J. G. del Hoyo, J. Patel, E. J. Wollack, J. A. Christodoulides, J. I. Larruquert, M. A. Quijada. Self-consistent optical properties of PEALD-Al2O3 thin films. Opt. Express 7, 1750-1764 (2016) (Numerical data kindly provided by Luis Rodriguez de Marcos)
Comments: The aluminum oxide films were deposited by plasma-enhanced atomic layer deposition (PEALD) onto Si and MgF2 substrates heated at 300 °C. Optical measurements (transmittance, reflectance, and ellipsometry) were performed over a very broad spectral range jointly covering from 58.4 nm to 43 μm. Using these measurements, along with suitable extrapolations, a Kramers-Kronig analysis procedure was applied to obtain a self-consistent set of optical properties that successfully reproduces the experimental data. Global and local self-consistency of the derived properties were satisfactorily evaluated through the application of sum rules.
Conditions: {"deposition_temperature": 573}
wavelength (um)	n	k
3.10152E-06	0.999999995239093	8.93886E-12
3.26803E-06	0.999999994723221	9.60813E-12
3.44348E-06	0.999999994144082	1.03506E-11
3.62835E-06	0.999999993500255	1.11424E-11
3.82315E-06	0.999999992785100	1.19851E-11
4.02840E-06	0.999999991990918	1.28809E-11
4.24467E-06	0.999999991109081	1.38546E-11
4.47256E-06	0.999999990129931	1.49154E-11
4.71268E-06	0.999999989042770	1.60457E-11
4.96569E-06	0.999999987835714	1.72492E-11
5.23228E-06	0.999999986495570	1.85292E-11
5.51319E-06	0.999999985007665	1.99413E-11
5.80917E-06	0.999999983355677	2.14593E-11
6.12105E-06	0.999999981521539	2.30774E-11
6.44967E-06	0.999999979485180	2.48003E-11
6.79594E-06	0.999999977224328	2.66526E-11
7.16079E-06	0.999999974714186	2.87009E-11
7.54523E-06	0.999999971927254	3.08922E-11
7.95031E-06	0.999999968833032	3.32338E-11
8.37714E-06	0.999999965397652	3.57341E-11
8.82689E-06	0.999999961583518	3.84863E-11
9.30078E-06	0.999999957348764	4.15007E-11
9.80011E-06	0.999999952647026	4.47443E-11
1.03262E-05	0.999999947426819	4.82360E-11
1.08806E-05	0.999999941631015	5.19959E-11
1.14648E-05	0.999999935196073	5.62624E-11
1.20803E-05	0.999999928051397	6.09143E-11
1.27289E-05	0.999999920118742	6.59828E-11
1.34122E-05	0.999999911311218	7.15087E-11
1.41323E-05	0.999999901532406	7.76651E-11
1.48910E-05	0.999999890674907	8.47054E-11
1.56905E-05	0.999999878619668	9.25193E-11
1.65328E-05	0.999999865234589	1.01203E-10
1.74204E-05	0.999999850373034	1.10858E-10
1.83557E-05	0.999999833872102	1.22172E-10
1.93412E-05	0.999999815550339	1.35227E-10
2.03795E-05	0.999999795206843	1.50072E-10
2.14736E-05	0.999999772618513	1.66964E-10
2.26265E-05	0.999999747537951	1.86324E-10
2.38413E-05	0.999999719689388	2.10169E-10
2.51212E-05	0.999999688766494	2.37948E-10
2.64699E-05	0.999999654429955	2.70309E-10
2.78910E-05	0.999999616303079	3.07943E-10
2.93884E-05	0.999999573968349	3.53559E-10
3.09662E-05	0.999999526957946	4.09924E-10
3.26286E-05	0.999999474755571	4.76927E-10
3.43804E-05	0.999999416788660	5.56368E-10
3.62262E-05	0.999999352426374	6.49473E-10
3.81710E-05	0.999999280954061	7.54258E-10
4.02203E-05	0.999999201576127	8.78373E-10
4.23797E-05	0.999999113418974	1.01574E-09
4.46549E-05	0.999999015505245	1.18206E-09
4.70523E-05	0.999998906732397	1.38122E-09
4.95784E-05	0.999998785921669	1.67118E-09
5.22401E-05	0.999998651751852	2.02967E-09
5.50447E-05	0.999998502733814	2.47256E-09
5.79999E-05	0.999998337214801	3.01968E-09
6.11138E-05	0.999998153361646	3.69483E-09
6.43948E-05	0.999997949138072	4.52690E-09
6.78520E-05	0.999997722275501	5.55511E-09
7.14947E-05	0.999997470254865	6.82362E-09
7.53331E-05	0.999997190272774	8.38775E-09
7.93775E-05	0.999996879216067	1.03131E-08
8.36390E-05	0.999996533616921	1.26882E-08
8.81294E-05	0.999996149620833	1.56201E-08
9.28608E-05	0.999995722937405	1.92315E-08
9.78462E-05	0.999995248798610	2.36766E-08
1.03099E-04	0.999994721896524	2.91479E-08
1.08634E-04	0.999994136324054	3.59018E-08
1.14467E-04	0.999993485515491	4.42182E-08
1.20612E-04	0.999992762146416	5.44449E-08
1.27087E-04	0.999991958099142	6.70146E-08
1.33910E-04	0.999991064294043	8.24781E-08
1.41100E-04	0.999990070675857	1.01532E-07
1.48675E-04	0.999988966008880	1.24935E-07
1.56657E-04	0.999987737834496	1.53664E-07
1.65067E-04	0.999986372260966	1.88913E-07
1.73929E-04	0.999984853830882	2.32294E-07
1.83267E-04	0.999983165400459	2.85537E-07
1.93106E-04	0.999981287800160	3.50804E-07
2.03473E-04	0.999979199915542	4.30759E-07
2.14397E-04	0.999976878050929	5.28766E-07
2.25907E-04	0.999974296115065	6.49049E-07
2.38036E-04	0.999971424970617	7.96219E-07
2.50815E-04	0.999968232529512	9.76161E-07
2.64281E-04	0.999964683149807	1.19597E-06
2.78469E-04	0.999960737324256	1.46527E-06
2.93419E-04	0.999956351860558	1.79415E-06
3.09172E-04	0.999951478456923	2.19530E-06
3.25771E-04	0.999946065505187	2.68380E-06
3.43260E-04	0.999940054498528	3.27880E-06
3.61689E-04	0.999933383375717	4.00379E-06
3.81107E-04	0.999925982934450	4.88433E-06
4.01568E-04	0.999917780255151	5.95235E-06
4.23127E-04	0.999908696547437	7.24638E-06
4.45843E-04	0.999898647992131	8.81735E-06
4.69779E-04	0.999887549471881	1.07181E-05
4.95000E-04	0.999875310435420	1.30124E-05
5.21575E-04	0.999861850062866	1.57778E-05
5.49577E-04	0.999847087818275	1.91092E-05
5.79082E-04	0.999830973019706	2.31215E-05
6.10172E-04	0.999813498110233	2.79270E-05
6.42930E-04	0.999794671696743	3.36146E-05
6.77447E-04	0.999774721651708	4.04680E-05
7.13817E-04	0.999754428868288	4.87102E-05
7.52140E-04	0.999736093731123	5.83817E-05
7.92520E-04	0.999741623570616	5.48780E-05
8.35068E-04	0.999679615737505	3.56744E-05
8.79901E-04	0.999634181086659	4.40018E-05
9.27140E-04	0.999587998917627	5.63039E-05
9.76915E-04	0.999540642743675	6.85827E-05
1.02936E-03	0.999485945445595	8.02358E-05
1.08463E-03	0.999425975560640	1.03811E-04
1.14286E-03	0.999366391217632	1.27066E-04
1.20421E-03	0.999299439302789	1.49136E-04
1.26886E-03	0.999215374137365	1.82383E-04
1.33699E-03	0.999139235983110	2.29189E-04
1.40877E-03	0.999061172471734	2.73609E-04
1.48440E-03	0.998971558797579	3.15766E-04
1.56409E-03	0.998840386444715	3.71652E-04
1.64806E-03	0.998739183508627	4.98613E-04
1.73654E-03	0.998671798775230	6.19104E-04
1.82977E-03	0.998623572057781	7.33456E-04
1.92801E-03	0.998595487849348	8.41982E-04
2.03152E-03	0.998608282848126	9.44979E-04
2.14058E-03	0.998681618858552	9.06821E-04
2.25550E-03	0.998653651312782	8.06022E-04
2.37660E-03	0.998505883184398	5.78614E-04
2.50419E-03	0.998109092466878	4.17792E-04
2.63863E-03	0.997739633447434	5.00294E-04
2.78029E-03	0.997409799416187	5.78591E-04
2.92956E-03	0.997062795152985	6.52900E-04
3.08684E-03	0.996652607936722	7.23422E-04
3.25256E-03	0.996204089909484	9.21070E-04
3.42718E-03	0.995791633298890	1.11993E-03
3.61117E-03	0.995352214930884	1.31636E-03
3.80505E-03	0.994879606402125	1.51557E-03
4.00933E-03	0.994333745286761	1.70463E-03
4.22458E-03	0.993624100563498	1.99871E-03
4.45138E-03	0.993001491012388	2.43264E-03
4.69037E-03	0.992383886107087	2.84447E-03
4.94218E-03	0.991690011369419	3.23531E-03
5.20751E-03	0.990936780100225	3.75384E-03
5.48709E-03	0.990183874966595	4.25594E-03
5.78167E-03	0.989342409058216	4.73246E-03
6.09207E-03	0.988318065351800	5.18470E-03
6.41914E-03	0.987015858652870	5.93340E-03
6.76376E-03	0.985804486792321	6.79914E-03
7.12689E-03	0.984434930314928	7.89849E-03
7.50951E-03	0.983216379625182	9.08625E-03
7.91268E-03	0.981889027403169	1.02760E-02
8.33748E-03	0.980401339374200	1.15574E-02
8.78510E-03	0.978950707559936	1.30739E-02
9.25675E-03	0.977037431191122	1.43177E-02
9.75371E-03	0.975019836060072	1.66823E-02
1.02774E-02	0.973761170194597	1.84388E-02
1.08291E-02	0.970963302554035	2.07026E-02
1.14105E-02	0.968411924271260	2.44311E-02
1.20231E-02	0.967133948159941	2.96234E-02
1.26686E-02	0.970335405473912	3.45649E-02
1.33487E-02	0.972175608450316	3.01287E-02
1.40654E-02	0.964973972504157	3.05172E-02
1.48205E-02	0.961996487626877	3.45372E-02
1.56162E-02	0.966466078106926	4.24218E-02
1.64546E-02	0.960260196682900	3.03263E-02
1.73380E-02	0.949960298048398	3.46902E-02
1.82688E-02	0.942282524599803	3.96310E-02
1.92496E-02	0.934611661370463	4.50487E-02
2.02830E-02	0.927231172291068	5.18042E-02
2.13720E-02	0.919273626445349	5.98915E-02
2.25194E-02	0.911966746785982	6.84541E-02
2.37284E-02	0.904553115361812	7.83826E-02
2.50023E-02	0.896080196986772	8.83940E-02
2.63446E-02	0.888006392027324	1.00849E-01
2.77590E-02	0.878214011736243	1.13503E-01
2.92493E-02	0.869636024715017	1.30315E-01
3.08196E-02	0.860734550131888	1.46270E-01
3.24742E-02	0.851112093654625	1.68008E-01
3.42176E-02	0.844367947492964	1.89445E-01
3.60547E-02	0.834700075352815	2.12725E-01
3.79903E-02	0.828748257865070	2.40379E-01
4.00299E-02	0.823147645603530	2.66623E-01
4.21790E-02	0.811974010228145	2.95596E-01
4.44435E-02	0.799225664281016	3.30395E-01
4.68295E-02	0.787866917298309	3.77252E-01
4.93437E-02	0.775249007108203	4.40534E-01
5.19928E-02	0.777598225389505	5.13436E-01
5.47841E-02	0.803474023296584	6.03891E-01
5.77253E-02	0.856560845700336	6.88516E-01
6.08244E-02	0.935107895280109	7.52114E-01
6.40899E-02	1.014021371766590	8.01228E-01
6.75307E-02	1.109111944661250	8.24511E-01
7.11563E-02	1.191518827233650	8.23289E-01
7.49764E-02	1.255168507481590	8.12756E-01
7.90017E-02	1.300598935815810	8.05281E-01
8.32431E-02	1.337713756708540	8.08340E-01
8.77121E-02	1.376089245334800	8.34624E-01
9.24212E-02	1.434049004662590	8.79335E-01
9.73830E-02	1.527907416151630	9.24355E-01
1.02611E-01	1.681561439863280	9.42855E-01
1.08120E-01	1.841995085964490	8.87176E-01
1.13925E-01	1.970392233429140	7.59500E-01
1.20041E-01	2.008055763531980	6.02231E-01
1.26486E-01	1.975016674190970	5.20094E-01
1.33276E-01	1.983049729228860	4.82239E-01
1.40432E-01	2.000750046716840	4.39517E-01
1.47971E-01	2.048548678911720	3.74117E-01
1.55915E-01	2.082861021097260	2.94952E-01
1.64286E-01	2.082480196193530	1.83593E-01
1.73106E-01	2.037018695898530	8.30588E-02
1.82399E-01	1.959900218764460	1.69110E-02
1.92192E-01	1.889628230016400	6.29305E-03
2.02510E-01	1.847884400660670	5.12077E-03
2.13382E-01	1.817917906421860	4.06967E-03
2.24838E-01	1.794451692043720	3.29076E-03
2.36909E-01	1.775508447411830	2.73532E-03
2.49628E-01	1.759876843770140	2.32254E-03
2.63030E-01	1.746771465783350	2.00539E-03
2.77151E-01	1.735651203856590	1.75517E-03
2.92030E-01	1.726125720592280	1.55335E-03
3.07709E-01	1.717903632625780	1.38750E-03
3.24229E-01	1.710761352742320	1.24903E-03
3.41635E-01	1.704523470872790	1.13185E-03
3.59977E-01	1.699049862042130	1.03146E-03
3.79303E-01	1.694226838487760	9.44595E-04
3.99667E-01	1.689960908273480	8.68723E-04
4.21124E-01	1.686174325289280	8.01916E-04
4.43732E-01	1.682801757680340	7.42684E-04
4.67555E-01	1.679787794322470	6.89822E-04
4.92657E-01	1.677085058206570	6.42397E-04
5.19106E-01	1.674652694417200	5.99641E-04
5.46975E-01	1.672455232475930	5.60936E-04
5.76341E-01	1.670461638025970	5.25772E-04
6.07283E-01	1.668644558885250	4.93737E-04
6.39886E-01	1.666979714626300	4.64489E-04
6.74240E-01	1.665445377921640	4.37744E-04
7.10438E-01	1.664021951500610	4.13267E-04
7.48579E-01	1.662691600949860	3.90866E-04
7.88768E-01	1.661437941404980	3.70388E-04
8.31115E-01	1.660245767546910	3.51705E-04
8.75735E-01	1.659100809932500	3.34725E-04
9.22751E-01	1.657989522930500	3.19378E-04
9.72291E-01	1.656898880994120	3.05615E-04
1.02449E+00	1.655816198397420	2.93423E-04
1.07949E+00	1.654728955313580	2.82797E-04
1.13745E+00	1.653624628174540	2.73771E-04
1.19851E+00	1.652490522069840	2.66397E-04
1.26286E+00	1.651313606950730	2.60758E-04
1.33066E+00	1.650080346727190	2.56973E-04
1.40210E+00	1.648776514318780	2.55189E-04
1.47737E+00	1.647387011926700	2.55601E-04
1.55669E+00	1.645895659803280	2.58450E-04
1.64026E+00	1.644284974346030	2.64027E-04
1.72832E+00	1.642535929713380	2.72693E-04
1.82111E+00	1.640627666017820	2.84885E-04
1.91888E+00	1.638537195224260	3.01125E-04
2.02190E+00	1.636239036054990	3.22054E-04
2.13045E+00	1.633704800879940	3.48431E-04
2.24483E+00	1.630902737655450	3.81173E-04
2.36534E+00	1.627797153563440	4.21403E-04
2.49233E+00	1.624347763842330	4.70444E-04
2.62614E+00	1.620508932107950	5.29919E-04
2.76713E+00	1.616228679655680	6.01793E-04
2.91569E+00	1.611447598253700	6.88434E-04
3.07222E+00	1.606097425638490	7.92774E-04
3.23716E+00	1.600099259188790	9.18349E-04
3.41095E+00	1.593361433713850	1.06953E-03
3.59408E+00	1.585776564427690	1.25179E-03
3.78703E+00	1.577217768159100	1.47178E-03
3.99035E+00	1.567533304610230	1.73798E-03
4.20458E+00	1.556537876199770	2.06100E-03
4.43031E+00	1.543990465334140	2.43292E-03
4.66816E+00	1.529595228778020	3.04997E-03
4.91878E+00	1.513141703518580	3.87017E-03
5.18286E+00	1.494212991185280	4.97388E-03
5.46111E+00	1.472325609441220	6.47964E-03
5.75430E+00	1.446877595649160	8.56143E-03
6.06323E+00	1.417110496492380	1.14825E-02
6.38875E+00	1.382054996810850	1.56456E-02
6.73174E+00	1.340467621416030	2.16735E-02
7.09315E+00	1.290743934932280	3.05558E-02
7.47396E+00	1.230803820823430	4.38796E-02
7.87522E+00	1.157997418339200	6.42425E-02
8.29801E+00	1.069025136319370	9.60184E-02
8.74351E+00	0.960085193787309	1.46623E-01
9.21292E+00	0.827782606202461	2.29042E-01
9.70754E+00	0.671945026260992	3.66505E-01
1.02287E+01	0.509279209443452	6.07447E-01
1.07779E+01	0.435376336748560	1.02374E+00
1.13565E+01	0.621550635436473	1.32956E+00
1.19662E+01	0.848717703416586	1.59433E+00
1.26086E+01	1.123090238784290	1.76000E+00
1.32855E+01	1.365530780506660	1.87613E+00
1.39988E+01	1.576522074810250	1.91136E+00
1.47504E+01	1.852981751695880	1.92659E+00
1.55423E+01	2.086671940768090	1.75182E+00
1.63767E+01	1.945564447155390	1.48296E+00
1.72559E+01	2.152543002791110	1.79455E+00
1.81823E+01	2.187309745431550	1.66249E+00
1.91585E+01	2.235228740225120	1.70000E+00
2.01870E+01	2.243814773244170	1.74610E+00
2.12708E+01	2.436799899671820	2.10681E+00
2.24128E+01	2.660672347687520	1.80684E+00
2.36161E+01	2.847610112359450	2.00824E+00
2.48839E+01	2.972260730716450	1.81000E+00
2.62199E+01	3.412369207491340	2.09645E+00
2.76275E+01	3.488898018337520	2.02934E+00
2.91108E+01	3.836957157165910	1.75457E+00
3.06737E+01	4.063509903463630	1.42960E+00
3.23204E+01	4.136591871704160	1.08005E+00
3.40556E+01	4.101969375349700	7.78358E-01
3.58840E+01	4.006566379862260	5.51486E-01
3.78105E+01	3.889915981232480	3.91501E-01
3.98404E+01	3.774272294143490	2.85970E-01
4.19793E+01	3.668032543258170	2.23236E-01
4.42331E+01	3.590965403759530	1.85845E-01
4.66078E+01	3.529046752138230	1.55552E-01
4.91101E+01	3.478684365702940	1.29536E-01
5.17466E+01	3.433661214737290	1.07685E-01
5.45248E+01	3.394837065998070	9.02012E-02
5.74521E+01	3.361066915556890	7.50766E-02
6.05365E+01	3.330542604157030	6.27544E-02
6.37865E+01	3.304175262602410	5.25093E-02
6.72110E+01	3.280497743327740	4.34838E-02
7.08194E+01	3.259280588687420	3.60432E-02
7.46215E+01	3.240179090331540	3.03663E-02
7.86277E+01	3.223381473024520	2.53739E-02
8.28490E+01	3.208209296247370	2.09552E-02
8.72969E+01	3.194504662815740	1.80769E-02
9.19836E+01	3.182757591738390	1.54747E-02
9.69219E+01	3.172291045317180	1.30711E-02
1.02125E+02	3.162653684344740	1.10218E-02
1.07608E+02	3.154152400968140	9.40838E-03
1.13385E+02	3.146387788500770	8.09066E-03
1.19473E+02	3.139609955279060	7.08522E-03
1.25887E+02	3.133497062275700	6.16605E-03
1.32645E+02	3.128080935963070	5.50642E-03
1.39767E+02	3.123264827550360	4.88041E-03
1.47270E+02	3.118887672499920	4.39594E-03
1.55177E+02	3.115050216349300	4.01197E-03
1.63508E+02	3.111621166076040	3.64757E-03
1.72286E+02	3.108517046788280	3.37252E-03
1.81536E+02	3.105794583884100	3.15075E-03
1.91282E+02	3.103377588335180	2.94028E-03
2.01551E+02	3.101226545540630	2.73818E-03
2.12372E+02	3.099295773517190	2.53345E-03
2.23774E+02	3.097555501229530	2.33915E-03
2.35787E+02	3.095982395760190	2.15475E-03
2.48446E+02	3.094545340213920	1.97974E-03
2.61784E+02	3.093238685399870	1.87147E-03
2.75839E+02	3.092092367433100	1.77611E-03
2.90648E+02	3.091071030304720	1.68562E-03
3.06252E+02	3.090158006421200	1.59973E-03
3.22694E+02	3.089340501489120	1.51822E-03
3.40018E+02	3.088607817904530	1.44087E-03
3.58273E+02	3.087950738510320	1.36745E-03
3.77507E+02	3.087361210469550	1.29778E-03
3.97775E+02	3.086832144993870	1.23166E-03
4.19130E+02	3.086357274095130	1.16890E-03
4.41632E+02	3.085931040610120	1.10934E-03
4.65342E+02	3.085548510232390	1.05282E-03
4.90324E+02	3.085205299571750	9.99177E-04
5.16649E+02	3.084897516869310	9.48267E-04
5.44386E+02	3.084621713524260	8.99952E-04
5.73612E+02	3.084374845729630	8.54098E-04
6.04408E+02	3.084154246691890	8.10580E-04
6.36857E+02	3.083957611577800	7.69279E-04
6.71048E+02	3.083783000297080	7.30083E-04
7.07075E+02	3.083628869335980	6.92884E-04
7.45035E+02	3.083494157994750	6.57581E-04
7.85034E+02	3.083378491327550	6.24076E-04
8.27180E+02	3.083282674315020	5.92278E-04
8.71589E+02	3.083210072354290	5.62101E-04
9.18382E+02	3.083171671561410	5.33461E-04
9.67688E+02	3.083220722352610	5.06280E-04
