Material: main / TiN / Beliaev
Optical constants. L. Yu. Beliaev, E. Shkondin, A. V. Lavrinenko, and O. Takayama. Optical properties of plasmonic titanium nitride thin films from ultraviolet to mid-infrared wavelengths deposited by pulsed-DC sputtering, thermal and plasma-enhanced atomic layer deposition, 143, 114237 Opt. Mater. 143, 114237 (2023) (Numerical data kindly provided by Osamu Takayama)
Comments: 50 nm thick film deposited by pulsed-DC sputtering.
Specs: {"n_is_absolute": true, "wavelength_is_vacuum": true, "film_thickness": "50e-9", "substrate": "Si"}
wavelength (um)	n	k
0.21140	2.47401	1.97842
0.21614	2.54137	1.87953
0.22089	2.59185	1.79624
0.22563	2.63013	1.72350
0.23038	2.65913	1.65846
0.23513	2.68080	1.59939
0.23987	2.69651	1.54515
0.24462	2.70726	1.49500
0.24937	2.71380	1.44837
0.25412	2.71673	1.40485
0.25887	2.71652	1.36414
0.26363	2.71353	1.32599
0.26838	2.70808	1.29018
0.27313	2.70042	1.25656
0.27789	2.69078	1.22496
0.28264	2.67933	1.19528
0.28740	2.66623	1.16740
0.29215	2.65160	1.14123
0.29691	2.63557	1.11667
0.30167	2.61823	1.09367
0.30643	2.59965	1.07214
0.31119	2.57993	1.05203
0.31595	2.55911	1.03330
0.32070	2.53724	1.01589
0.32547	2.51439	0.99976
0.33023	2.49058	0.98487
0.33499	2.46585	0.97121
0.33975	2.44022	0.95873
0.34451	2.41373	0.94743
0.34928	2.38640	0.93728
0.35404	2.35823	0.92827
0.35880	2.32925	0.92039
0.36357	2.29948	0.91365
0.36833	2.26891	0.90803
0.37310	2.23756	0.90355
0.37786	2.20545	0.90022
0.38263	2.17257	0.89805
0.38739	2.13893	0.89706
0.39216	2.10455	0.89727
0.39693	2.06943	0.89871
0.40169	2.03359	0.90142
0.40646	1.99703	0.90544
0.41123	1.95977	0.91081
0.41600	1.92184	0.91757
0.42077	1.88326	0.92580
0.42553	1.84406	0.93553
0.43030	1.80429	0.94685
0.43507	1.76399	0.95982
0.43984	1.72322	0.97452
0.44461	1.68206	0.99100
0.44938	1.64060	1.00936
0.45415	1.59893	1.02965
0.45892	1.55718	1.05195
0.46369	1.51549	1.07629
0.46846	1.47399	1.10273
0.47323	1.43287	1.13129
0.47800	1.39229	1.16195
0.48277	1.35244	1.19471
0.48754	1.31351	1.22950
0.49231	1.27567	1.26623
0.49708	1.23909	1.30480
0.50185	1.20392	1.34506
0.50662	1.17029	1.38686
0.51139	1.13830	1.43003
0.51616	1.10801	1.47437
0.52093	1.07947	1.51971
0.52569	1.05269	1.56587
0.53046	1.02766	1.61267
0.53523	1.00434	1.65995
0.54000	0.98270	1.70757
0.54477	0.96267	1.75541
0.54954	0.94418	1.80334
0.55431	0.92715	1.85128
0.55908	0.91151	1.89913
0.56385	0.89718	1.94684
0.56861	0.88408	1.99434
0.57338	0.87213	2.04159
0.57815	0.86126	2.08855
0.58292	0.85141	2.13520
0.58768	0.84250	2.18151
0.59245	0.83448	2.22746
0.59722	0.82728	2.27305
0.60198	0.82087	2.31827
0.60675	0.81518	2.36310
0.61151	0.81016	2.40756
0.61628	0.80579	2.45163
0.62104	0.80202	2.49532
0.62581	0.79880	2.53863
0.63057	0.79611	2.58157
0.63533	0.79392	2.62414
0.64010	0.79220	2.66635
0.64486	0.79092	2.70821
0.64962	0.79005	2.74971
0.65438	0.78958	2.79087
0.65914	0.78948	2.83169
0.66390	0.78973	2.87218
0.66866	0.79031	2.91235
0.67342	0.79121	2.95220
0.67818	0.79241	2.99175
0.68294	0.79389	3.03099
0.68770	0.79565	3.06993
0.69245	0.79766	3.10859
0.69721	0.79992	3.14696
0.70196	0.80241	3.18506
0.70672	0.80513	3.22288
0.71147	0.80806	3.26044
0.71623	0.81120	3.29774
0.72098	0.81452	3.33479
0.72573	0.81804	3.37159
0.73048	0.82174	3.40815
0.73523	0.82560	3.44447
0.73998	0.82964	3.48055
0.74473	0.83383	3.51641
0.74948	0.83817	3.55205
0.75423	0.84266	3.58746
0.75897	0.84729	3.62267
0.76372	0.85205	3.65766
0.76846	0.85694	3.69244
0.77321	0.86196	3.72703
0.77795	0.86710	3.76141
0.78269	0.87236	3.79560
0.78743	0.87773	3.82959
0.79217	0.88321	3.86340
0.79691	0.88879	3.89703
0.80165	0.89447	3.93047
0.80639	0.90026	3.96373
0.81113	0.90613	3.99682
0.81586	0.91210	4.02973
0.82059	0.91816	4.06247
0.82533	0.92430	4.09505
0.83006	0.93052	4.12746
0.83479	0.93683	4.15971
0.83952	0.94321	4.19180
0.84425	0.94967	4.22373
0.84898	0.95621	4.25550
0.85370	0.96281	4.28712
0.85843	0.96949	4.31859
0.86315	0.97623	4.34991
0.86788	0.98304	4.38108
0.87260	0.98991	4.41210
0.87732	0.99684	4.44298
0.88204	1.00383	4.47372
0.88676	1.01088	4.50431
0.89148	1.01799	4.53476
0.89619	1.02516	4.56508
0.90091	1.03238	4.59525
0.90562	1.03965	4.62528
0.91033	1.04698	4.65517
0.91504	1.05435	4.68491
0.91975	1.06176	4.71451
0.92446	1.06919	4.74397
0.92917	1.07666	4.77329
0.93387	1.08415	4.80249
0.93858	1.09167	4.83157
0.94328	1.09922	4.86052
0.94798	1.10679	4.88935
0.95268	1.11438	4.91806
0.95738	1.12200	4.94666
0.96207	1.12964	4.97515
0.96677	1.13731	5.00353
0.97146	1.14499	5.03179
0.97616	1.15270	5.05995
0.98085	1.16042	5.08800
0.98554	1.16817	5.11595
0.99022	1.17594	5.14379
0.99491	1.18372	5.17154
0.99959	1.19152	5.19918
1.01740	1.22136	5.30343
1.02759	1.23856	5.36254
1.03778	1.25585	5.42128
1.04798	1.27323	5.47967
1.05819	1.29069	5.53770
1.06839	1.30824	5.59539
1.07860	1.32586	5.65274
1.08882	1.34355	5.70977
1.09904	1.36131	5.76648
1.10926	1.37914	5.82288
1.11949	1.39704	5.87897
1.12972	1.41499	5.93476
1.13996	1.43301	5.99026
1.15020	1.45108	6.04547
1.16044	1.46920	6.10039
1.17069	1.48738	6.15504
1.18094	1.50560	6.20942
1.19119	1.52387	6.26352
1.20145	1.54218	6.31737
1.21172	1.56053	6.37095
1.22198	1.57892	6.42428
1.23225	1.59735	6.47736
1.24253	1.61581	6.53019
1.25281	1.63430	6.58277
1.26309	1.65282	6.63512
1.27338	1.67137	6.68723
1.28367	1.68995	6.73911
1.29397	1.70855	6.79076
1.30427	1.72717	6.84218
1.31457	1.74582	6.89338
1.32488	1.76448	6.94437
1.33519	1.78315	6.99513
1.34551	1.80185	7.04568
1.35583	1.82055	7.09602
1.36615	1.83927	7.14615
1.37648	1.85800	7.19607
1.38681	1.87673	7.24580
1.39714	1.89547	7.29532
1.40748	1.91422	7.34464
1.41783	1.93297	7.39377
1.42817	1.95172	7.44271
1.43853	1.97048	7.49146
1.44888	1.98923	7.54002
1.45924	2.00798	7.58839
1.46960	2.02672	7.63658
1.47997	2.04547	7.68459
1.49034	2.06420	7.73242
1.50072	2.08293	7.78007
1.51110	2.10165	7.82755
1.52148	2.12036	7.87486
1.53187	2.13905	7.92199
1.54226	2.15774	7.96896
1.55266	2.17641	8.01576
1.56306	2.19507	8.06240
1.57346	2.21371	8.10887
1.58387	2.23233	8.15518
1.59428	2.25094	8.20134
1.60469	2.26953	8.24734
1.61511	2.28810	8.29318
1.62554	2.30664	8.33887
1.63596	2.32517	8.38441
1.64640	2.34367	8.42980
1.65683	2.36215	8.47504
1.66727	2.38060	8.52013
1.67771	2.39903	8.56508
1.68816	2.41743	8.60989
2.00756	3.07528	9.93470
2.01901	3.10294	9.98320
2.03058	3.13098	10.03208
2.04230	3.15939	10.08134
2.05415	3.18818	10.13099
2.06613	3.21737	10.18103
2.07826	3.24694	10.23147
2.09053	3.27691	10.28231
2.10295	3.30729	10.33355
2.11551	3.33809	10.38521
2.12823	3.36931	10.43728
2.14110	3.40096	10.48977
2.15412	3.43304	10.54268
2.16731	3.46557	10.59605
2.18066	3.49855	10.64983
2.19417	3.53200	10.70402
2.20785	3.56590	10.75870
2.22170	3.60029	10.81379
2.23574	3.63515	10.86937
2.24994	3.67051	10.92541
2.26433	3.70637	10.98190
2.27890	3.74275	11.03885
2.29367	3.77964	11.09629
2.30862	3.81705	11.15423
2.32377	3.85501	11.21263
2.33913	3.89351	11.27157
2.35468	3.93257	11.33098
2.37044	3.97220	11.39089
2.38642	4.01241	11.45131
2.40262	4.05320	11.51227
2.41903	4.09459	11.57375
2.43567	4.13660	11.63574
2.45254	4.17923	11.69829
2.46965	4.22248	11.76139
2.48699	4.26638	11.82502
2.50458	4.31095	11.88925
2.52242	4.35616	11.95400
2.54053	4.40208	12.01933
2.55889	4.44868	12.08527
2.57751	4.49600	12.15179
2.59642	4.54403	12.21889
2.61560	4.59277	12.28660
2.63506	4.64228	12.35491
2.65482	4.69255	12.42385
2.67488	4.74361	12.49343
2.69524	4.79547	12.56362
2.71591	4.84808	12.63447
2.73690	4.90159	12.70597
2.75823	4.95589	12.77814
2.77988	5.01106	12.85098
2.80187	5.06709	12.92449
2.82423	5.12401	12.99871
2.84693	5.18185	13.07362
2.87001	5.24058	13.14921
2.89346	5.30027	13.22554
2.91731	5.36095	13.30259
2.94154	5.42259	13.38041
2.96618	5.48523	13.45896
2.99124	5.54891	13.53826
3.01673	5.61360	13.61835
3.04265	5.67937	13.69924
3.06902	5.74622	13.78089
3.09585	5.81418	13.86336
3.12317	5.88327	13.94668
3.15096	5.95351	14.03080
3.17925	6.02493	14.11576
3.20806	6.09756	14.20159
3.23739	6.17140	14.28832
3.26726	6.24652	14.37592
3.29769	6.32290	14.46441
3.32870	6.40058	14.55384
3.36028	6.47963	14.64420
3.39248	6.56001	14.73549
3.42529	6.64180	14.82776
3.45876	6.72502	14.92099
3.49288	6.80970	15.01526
3.52767	6.89586	15.11052
3.56317	6.98356	15.20685
3.59940	7.07280	15.30420
3.63636	7.16364	15.40265
3.67409	7.25610	15.50219
3.71263	7.35023	15.60285
3.75197	7.44607	15.70465
3.79214	7.54366	15.80759
3.83319	7.64303	15.91175
3.87516	7.74422	16.01711
3.91803	7.84729	16.12371
3.96187	7.95227	16.23159
4.00670	8.05924	16.34076
4.05257	8.16820	16.45124
4.09949	8.27920	16.56307
4.14750	8.39233	16.67630
4.19666	8.50762	16.79094
4.24701	8.62516	16.90705
4.29856	8.74495	17.02463
4.35138	8.86708	17.14375
4.40554	8.99160	17.26444
4.46104	9.11857	17.38673
4.51796	9.24811	17.51067
4.57634	9.38020	17.63630
4.63628	9.51497	17.76369
4.69779	9.65248	17.89286
4.76095	9.79280	18.02390
4.82584	9.93605	18.15682
4.89254	10.08227	18.29172
4.96108	10.23152	18.42864
5.03157	10.38397	18.56766
5.10410	10.53965	18.70883
5.17877	10.69871	18.85223
5.25563	10.86120	18.99794
5.33481	11.02727	19.14604
5.41644	11.19702	19.29661
5.50058	11.37056	19.44975
5.58737	11.54805	19.60557
5.67695	11.72958	19.76414
5.76947	11.91533	19.92559
5.86503	12.10540	20.09004
5.96381	12.29999	20.25761
6.06597	12.49924	20.42844
6.17173	12.70333	20.60263
6.28121	12.91244	20.78038
6.39464	13.12677	20.96185
6.51228	13.34653	21.14717
6.63429	13.57191	21.33656
6.76096	13.80319	21.53021
6.89256	14.04058	21.72834
7.02943	14.28436	21.93116
7.17180	14.53480	22.13893
7.32005	14.79223	22.35191
7.47457	15.05697	22.57038
7.63580	15.32934	22.79466
7.80409	15.60973	23.02509
7.97995	15.89856	23.26201
8.16393	16.19625	23.50584
8.35666	16.50328	23.75700
8.55864	16.82016	24.01595
8.77062	17.14742	24.28318
8.99345	17.48571	24.55928
9.22782	17.83566	24.84486
9.47472	18.19800	25.14057
9.73520	18.57351	25.44715
10.01047	18.96308	25.76541
10.30173	19.36769	26.09629
10.61043	19.78825	26.44069
10.93821	20.22621	26.79988
11.28690	20.68266	27.17494
11.65853	21.15925	27.56737
12.05548	21.65746	27.97858
12.48042	22.17950	28.41047
12.93639	22.72748	28.86484
13.42696	23.30385	29.34365
13.95621	23.91166	29.84903
14.52887	24.55374	30.38294
15.15055	25.23278	30.94783
15.82782	25.95104	31.54748
16.56847	26.71202	32.18776
17.38181	27.52154	32.87552
18.27916	28.38706	33.61743
19.27421	29.31693	34.42055
