Material: main / TiO2 / Zhukovsky
Optical constants. S. V. Zhukovsky, A. Andryieuski, O. Takayama, E. Shkondin, R. Malureanu, F. Jensen, A. V. Lavrinenko. Experimental demonstration of effective medium approximation breakdown in deeply subwavelength all-dielectric multilayers, Phys. Rev. Lett. 115, 177402 (2015) (Numerical data kindly provided by Osamu Takayama)
Comments: 20 nm thick films on Si substrate deposited by atomic layer deposition (ALD) at 120 Â°C deposition temperature.
Specs: {"n_is_absolute": true, "wavelength_is_vacuum": true, "film_thickness": "20e-9", "substrate": "Si"}
wavelength (um)	n	k
0.211002	1.716848	1.305756
0.214150	1.756003	1.338500
0.217299	1.797432	1.369177
0.220447	1.841027	1.397717
0.223596	1.886689	1.424044
0.226746	1.934320	1.448076
0.229896	1.983827	1.469726
0.233046	2.035117	1.488898
0.236196	2.088096	1.505493
0.239347	2.142664	1.519404
0.242498	2.198720	1.530519
0.245649	2.256153	1.538718
0.248800	2.314846	1.543877
0.251952	2.374670	1.545867
0.255105	2.435487	1.544554
0.258257	2.497144	1.539799
0.261410	2.559473	1.531463
0.264563	2.622288	1.519401
0.267716	2.685385	1.503471
0.270870	2.748539	1.483531
0.274024	2.811502	1.459442
0.277178	2.874002	1.431070
0.280332	2.935739	1.398292
0.283487	2.996387	1.360997
0.286642	3.055597	1.319093
0.289797	3.112993	1.272510
0.292952	3.168186	1.221211
0.296108	3.220792	1.165193
0.299264	3.270464	1.104499
0.302420	3.316973	1.039208
0.305576	3.360406	0.969427
0.308733	3.401779	0.895181
0.311890	3.446212	0.815812
0.315047	3.497663	0.686527
0.318204	3.474872	0.556571
0.321362	3.432582	0.455770
0.324520	3.383559	0.375601
0.327678	3.332698	0.311038
0.330836	3.282356	0.258616
0.333994	3.233744	0.215796
0.337153	3.187475	0.180649
0.340311	3.143829	0.151684
0.343470	3.102885	0.127729
0.346630	3.064612	0.107852
0.349789	3.028909	0.091311
0.352948	2.995641	0.077508
0.356108	2.964654	0.065957
0.359268	2.935789	0.056267
0.362428	2.908885	0.048117
0.365588	2.883790	0.041247
0.368749	2.860359	0.035440
0.371909	2.838456	0.030521
0.375070	2.817956	0.026345
0.378231	2.798743	0.022791
0.381392	2.780711	0.019760
0.384553	2.763764	0.017169
0.387714	2.747813	0.014950
0.390876	2.732779	0.013045
0.394037	2.718589	0.011406
0.397199	2.705177	0.009993
0.400361	2.692484	0.008772
0.403523	2.680454	0.007716
0.406685	2.669038	0.006799
0.409847	2.658192	0.006003
0.413010	2.647874	0.005310
0.416172	2.638047	0.004705
0.419335	2.628677	0.004177
0.422497	2.619734	0.003714
0.425660	2.611188	0.003309
0.428823	2.603014	0.002952
0.431986	2.595189	0.002638
0.435149	2.587689	0.002362
0.438312	2.580496	0.002118
0.441475	2.573590	0.001902
0.444638	2.566955	0.001710
0.447802	2.560575	0.001540
0.450965	2.554435	0.001389
0.454129	2.548522	0.001255
0.457292	2.542824	0.001135
0.460456	2.537329	0.001028
0.463620	2.532026	0.000933
0.466784	2.526906	0.000847
0.469947	2.521959	0.000770
0.473111	2.517176	0.000701
0.476275	2.512549	0.000640
0.479439	2.508072	0.000584
0.482603	2.503736	0.000534
0.485767	2.499536	0.000488
0.488931	2.495464	0.000447
0.492095	2.491515	0.000410
0.495259	2.487684	0.000377
0.498423	2.483966	0.000346
0.501587	2.480356	0.000319
0.504752	2.476848	0.000293
0.507916	2.473439	0.000271
0.511080	2.470125	0.000250
0.514244	2.466902	0.000231
0.517408	2.463766	0.000213
0.520572	2.460714	0.000198
0.523736	2.457743	0.000183
0.526901	2.454849	0.000170
0.530065	2.452030	0.000158
0.533229	2.449282	0.000147
0.536393	2.446604	0.000136
0.539557	2.443992	0.000127
0.542721	2.441445	0.000118
0.545885	2.438960	0.000110
0.549049	2.436534	0.000103
0.552213	2.434166	0.000096
0.555376	2.431854	0.000090
0.558540	2.429595	0.000084
0.561704	2.427389	0.000079
0.564868	2.425233	0.000074
0.568031	2.423126	0.000069
0.571195	2.421066	0.000065
0.574358	2.419052	0.000061
0.577522	2.417082	0.000057
0.580685	2.415154	0.000054
0.583848	2.413269	0.000051
0.587012	2.411423	0.000048
0.590175	2.409616	0.000045
0.593338	2.407847	0.000042
0.596501	2.406116	0.000040
0.599663	2.404419	0.000038
0.602826	2.402757	0.000036
0.605989	2.401129	0.000034
0.609151	2.399534	0.000032
0.612314	2.397970	0.000030
0.615476	2.396437	0.000029
0.618638	2.394934	0.000027
0.621800	2.393460	0.000026
0.624962	2.392014	0.000024
0.628124	2.390596	0.000023
0.631286	2.389205	0.000022
0.634447	2.387841	0.000021
0.637609	2.386501	0.000020
0.640770	2.385186	0.000019
0.643931	2.383896	0.000018
0.647092	2.382629	0.000017
0.650253	2.381385	0.000016
0.653414	2.380163	0.000015
0.656574	2.378963	0.000015
0.659734	2.377784	0.000014
0.662895	2.376626	0.000013
0.666055	2.375488	0.000013
0.669214	2.374370	0.000012
0.672374	2.373271	0.000012
0.675534	2.372191	0.000011
0.678693	2.371130	0.000011
0.681852	2.370086	0.000010
0.685011	2.369059	0.000010
0.688170	2.368050	0.000009
0.691328	2.367057	0.000009
0.694487	2.366081	0.000009
0.697645	2.365121	0.000008
0.700803	2.364176	0.000008
0.703960	2.363246	0.000008
0.707118	2.362332	0.000007
0.710275	2.361432	0.000007
0.713432	2.360546	0.000007
0.716589	2.359674	0.000006
0.719745	2.358815	0.000006
0.722902	2.357970	0.000006
0.726058	2.357138	0.000006
0.729214	2.356319	0.000006
0.732369	2.355512	0.000005
0.735525	2.354717	0.000005
0.738680	2.353935	0.000005
0.741835	2.353164	0.000005
0.744989	2.352405	0.000005
0.748144	2.351657	0.000004
0.751298	2.350919	0.000004
0.754451	2.350193	0.000004
0.757605	2.349478	0.000004
0.760758	2.348772	0.000004
0.763911	2.348077	0.000004
0.767064	2.347392	0.000004
0.770216	2.346716	0.000003
0.773368	2.346050	0.000003
0.776520	2.345394	0.000003
0.779672	2.344746	0.000003
0.782823	2.344108	0.000003
0.785974	2.343479	0.000003
0.789124	2.342858	0.000003
0.792275	2.342246	0.000003
0.795425	2.341642	0.000003
0.798574	2.341046	0.000003
0.801724	2.340459	0.000003
0.804873	2.339879	0.000002
0.808021	2.339307	0.000002
0.811170	2.338742	0.000002
0.814318	2.338186	0.000002
0.817465	2.337636	0.000002
0.820613	2.337094	0.000002
0.823760	2.336559	0.000002
0.826906	2.336030	0.000002
0.830052	2.335509	0.000002
0.833198	2.334994	0.000002
0.836344	2.334486	0.000002
0.839489	2.333985	0.000002
0.842634	2.333489	0.000002
0.845778	2.333000	0.000002
0.848922	2.332517	0.000002
0.852066	2.332041	0.000002
0.855209	2.331570	0.000002
0.858352	2.331105	0.000002
0.861495	2.330645	0.000001
0.864637	2.330192	0.000001
0.867778	2.329743	0.000001
0.870920	2.329301	0.000001
0.874061	2.328863	0.000001
0.877201	2.328431	0.000001
0.880341	2.328005	0.000001
0.883481	2.327583	0.000001
0.886620	2.327166	0.000001
0.889759	2.326754	0.000001
0.892897	2.326347	0.000001
0.896035	2.325945	0.000001
0.899173	2.325548	0.000001
0.902310	2.325155	0.000001
0.905446	2.324767	0.000001
0.908583	2.324383	0.000001
0.911718	2.324004	0.000001
0.914854	2.323629	0.000001
0.917988	2.323258	0.000001
0.921123	2.322892	0.000001
0.924257	2.322530	0.000001
0.927390	2.322171	0.000001
0.930523	2.321817	0.000001
0.933656	2.321467	0.000001
0.936788	2.321121	0.000001
0.939919	2.320778	0.000001
0.943050	2.320439	0.000001
0.946181	2.320104	0.000001
0.949311	2.319773	0.000001
0.952441	2.319445	0.000001
0.955570	2.319121	0.000001
0.958698	2.318801	0.000001
0.961826	2.318484	0.000001
0.964954	2.318170	0.000001
0.968081	2.317859	0.000001
0.971207	2.317552	0.000001
0.974333	2.317249	0.000001
0.977459	2.316948	0.000001
0.980584	2.316651	0.000001
0.983708	2.316356	0.000001
0.986832	2.316065	0.000001
0.989956	2.315777	0.000001
0.993078	2.315492	0.000001
0.996201	2.315210	0.000001
0.999322	2.314930	0.000001
1.014711	2.313594	0
1.021442	2.313030	0
1.028176	2.312478	0
1.034912	2.311937	0
1.041651	2.311407	0
1.048392	2.310888	0
1.055136	2.310379	0
1.061883	2.309881	0
1.068631	2.309392	0
1.075383	2.308913	0
1.082137	2.308444	0
1.088893	2.307983	0
1.095652	2.307532	0
1.102414	2.307089	0
1.109177	2.306655	0
1.115944	2.306229	0
1.122713	2.305811	0
1.129485	2.305401	0
1.136259	2.304998	0
1.143035	2.304603	0
1.149814	2.304215	0
1.156596	2.303834	0
1.163380	2.303460	0
1.170167	2.303093	0
1.176956	2.302732	0
1.183748	2.302378	0
1.190542	2.302030	0
1.197339	2.301688	0
1.204138	2.301353	0
1.210940	2.301023	0
1.217744	2.300698	0
1.224551	2.300380	0
1.231360	2.300066	0
1.238172	2.299758	0
1.244987	2.299456	0
1.251804	2.299158	0
1.258623	2.298865	0
1.265445	2.298577	0
1.272270	2.298294	0
1.279097	2.298016	0
1.285926	2.297742	0
1.292758	2.297472	0
1.299593	2.297207	0
1.306430	2.296946	0
1.313269	2.296689	0
1.320112	2.296436	0
1.326956	2.296188	0
1.333803	2.295943	0
1.340653	2.295702	0
1.347505	2.295465	0
1.354360	2.295231	0
1.361217	2.295001	0
1.368077	2.294775	0
1.374939	2.294551	0
1.381804	2.294332	0
1.388672	2.294115	0
1.395542	2.293902	0
1.402414	2.293692	0
1.409289	2.293485	0
1.416166	2.293282	0
1.423046	2.293081	0
1.429929	2.292883	0
1.436814	2.292688	0
1.443701	2.292496	0
1.450591	2.292306	0
1.457484	2.292120	0
1.464379	2.291936	0
1.471276	2.291754	0
1.478177	2.291575	0
1.485079	2.291399	0
1.491984	2.291225	0
1.498892	2.291054	0
1.505802	2.290884	0
1.512715	2.290718	0
1.519630	2.290553	0
1.526548	2.290391	0
1.533468	2.290231	0
1.540391	2.290073	0
1.547317	2.289917	0
1.554244	2.289764	0
1.561175	2.289612	0
1.568108	2.289463	0
1.575043	2.289315	0
1.581981	2.289170	0
1.588922	2.289026	0
1.595865	2.288884	0
1.602810	2.288744	0
1.609758	2.288606	0
1.616709	2.288469	0
1.623662	2.288335	0
1.630617	2.288202	0
1.637575	2.288070	0
1.644536	2.287941	0
1.651499	2.287813	0
1.658465	2.287686	0
1.665433	2.287562	0
1.672404	2.287438	0
1.679377	2.287317	0
1.686353	2.287197	0
