Material: organic / (C6H11NO)n - poly(N-isopropylacrylamide) / Brasse
Optical constants. Y. Brasse, M. B. Müller, M. Karg, C. Kuttner, T. A. F. König, A. Fery. Magnetic and electric resonances in particle-to-film-coupled functional nanostructures, ACS Appl. Mater. Interfaces 10, 3133-3141 (2018) (Numerical data kindly provided by Tobias König)
wavelength (um)	n	k
0.245581	1.602264	0.009484
0.248781	1.598174	0.009201
0.251981	1.594300	0.008933
0.255182	1.590627	0.008679
0.258382	1.587144	0.008438
0.261582	1.583836	0.008210
0.264783	1.580693	0.007993
0.267983	1.577705	0.007787
0.271183	1.574861	0.007590
0.274384	1.572153	0.007404
0.277584	1.569572	0.007225
0.280784	1.567111	0.007056
0.283984	1.564762	0.006893
0.287184	1.562519	0.006738
0.290384	1.560377	0.006590
0.293584	1.558328	0.006448
0.296784	1.556368	0.006313
0.299984	1.554492	0.006183
0.303184	1.552695	0.006058
0.306384	1.550973	0.005938
0.309584	1.549322	0.005823
0.312783	1.547737	0.005713
0.315983	1.546217	0.005607
0.319183	1.544756	0.005504
0.322382	1.543353	0.005406
0.325581	1.542004	0.005311
0.328780	1.540707	0.005220
0.331980	1.539458	0.005132
0.335179	1.538256	0.005048
0.338378	1.537099	0.004966
0.341576	1.535983	0.004887
0.344775	1.534908	0.004810
0.347974	1.533871	0.004737
0.351172	1.532870	0.004665
0.354370	1.531904	0.004596
0.357568	1.530972	0.004530
0.360767	1.530071	0.004465
0.363964	1.529200	0.004403
0.367162	1.528359	0.004342
0.370360	1.527545	0.004283
0.373557	1.526758	0.004226
0.376754	1.525996	0.004171
0.379952	1.525259	0.004117
0.383148	1.524544	0.004065
0.386345	1.523852	0.004015
0.389542	1.523182	0.003966
0.392738	1.522532	0.003918
0.395935	1.521901	0.003871
0.399131	1.521290	0.003826
0.402326	1.520697	0.003782
0.405522	1.520121	0.003740
0.408718	1.519562	0.003698
0.411913	1.519019	0.003658
0.415108	1.518492	0.003618
0.418303	1.517980	0.003580
0.421497	1.517482	0.003543
0.424692	1.516997	0.003506
0.427886	1.516526	0.003471
0.431080	1.516068	0.003436
0.434274	1.515623	0.003402
0.437467	1.515189	0.003369
0.440660	1.514767	0.003337
0.443853	1.514356	0.003306
0.447046	1.513956	0.003275
0.450238	1.513566	0.003245
0.453431	1.513186	0.003216
0.456622	1.512815	0.003187
0.459814	1.512454	0.003159
0.463006	1.512102	0.003132
0.466197	1.511759	0.003105
0.469388	1.511424	0.003079
0.472578	1.511098	0.003053
0.475768	1.510779	0.003028
0.478958	1.510468	0.003004
0.482148	1.510164	0.002980
0.485337	1.509867	0.002957
0.488526	1.509578	0.002934
0.491715	1.509295	0.002911
0.494904	1.509018	0.002889
0.498092	1.508748	0.002868
0.501279	1.508484	0.002846
0.504467	1.508226	0.002826
0.507654	1.507974	0.002805
0.510841	1.507727	0.002785
0.514027	1.507486	0.002766
0.517214	1.507250	0.002747
0.520399	1.507019	0.002728
0.523585	1.506793	0.002710
0.526770	1.506572	0.002692
0.529954	1.506355	0.002674
0.533139	1.506143	0.002656
0.536323	1.505936	0.002639
0.539506	1.505733	0.002623
0.542690	1.505534	0.002606
0.545872	1.505339	0.002590
0.549055	1.505148	0.002574
0.552237	1.504961	0.002558
0.555419	1.504777	0.002543
0.558600	1.504597	0.002528
0.561781	1.504421	0.002513
0.564961	1.504248	0.002499
0.568141	1.504079	0.002484
0.571321	1.503913	0.002470
0.574500	1.503750	0.002456
0.577679	1.503590	0.002443
0.580857	1.503433	0.002430
0.584035	1.503279	0.002416
0.587212	1.503129	0.002403
0.590389	1.502980	0.002391
0.593566	1.502835	0.002378
0.596742	1.502692	0.002366
0.599918	1.502552	0.002354
0.603093	1.502414	0.002342
0.606268	1.502279	0.002330
0.609442	1.502147	0.002318
0.612616	1.502016	0.002307
0.615789	1.501888	0.002296
0.618962	1.501762	0.002285
0.622135	1.501639	0.002274
0.625306	1.501517	0.002263
0.628478	1.501398	0.002253
0.631649	1.501281	0.002242
0.634819	1.501165	0.002232
0.637989	1.501052	0.002222
0.641159	1.500940	0.002212
0.644327	1.500831	0.002202
0.647496	1.500723	0.002192
0.650664	1.500617	0.002183
0.653831	1.500513	0.002174
0.656998	1.500410	0.002164
0.660164	1.500309	0.002155
0.663330	1.500210	0.002146
0.666495	1.500113	0.002137
0.669660	1.500017	0.002128
0.672824	1.499922	0.002120
0.675987	1.499829	0.002111
0.679150	1.499737	0.002103
0.682313	1.499647	0.002095
0.685474	1.499558	0.002086
0.688636	1.499471	0.002078
0.691796	1.499385	0.002070
0.694956	1.499300	0.002062
0.698116	1.499217	0.002055
0.701275	1.499135	0.002047
0.704433	1.499054	0.002039
0.707591	1.498974	0.002032
0.710748	1.498896	0.002025
0.713905	1.498818	0.002017
0.717061	1.498742	0.002010
0.720216	1.498667	0.002003
0.723371	1.498593	0.001996
0.726525	1.498520	0.001989
0.729678	1.498448	0.001982
0.732831	1.498377	0.001975
0.735983	1.498308	0.001969
0.739135	1.498239	0.001962
0.742286	1.498171	0.001956
0.745436	1.498104	0.001949
0.748585	1.498038	0.001943
0.751734	1.497973	0.001937
0.754883	1.497909	0.001930
0.758030	1.497846	0.001924
0.761177	1.497783	0.001918
0.764323	1.497722	0.001912
0.767469	1.497661	0.001906
0.770614	1.497601	0.001900
0.773758	1.497542	0.001895
0.776902	1.497484	0.001889
0.780045	1.497427	0.001883
0.783187	1.497370	0.001878
0.786328	1.497314	0.001872
0.789469	1.497259	0.001867
0.792609	1.497204	0.001861
0.795748	1.497151	0.001856
0.798887	1.497098	0.001850
0.802025	1.497045	0.001845
0.805162	1.496994	0.001840
0.808298	1.496943	0.001835
0.811434	1.496892	0.001830
0.814569	1.496843	0.001825
0.817703	1.496793	0.001820
0.820836	1.496745	0.001815
0.823969	1.496697	0.001810
0.827101	1.496650	0.001805
0.830232	1.496603	0.001800
0.833363	1.496557	0.001796
0.836492	1.496511	0.001791
0.839621	1.496467	0.001786
0.842749	1.496422	0.001782
0.845877	1.496378	0.001777
0.849003	1.496335	0.001773
0.852129	1.496292	0.001768
0.855254	1.496250	0.001764
0.858378	1.496208	0.001760
0.861501	1.496167	0.001755
0.864624	1.496126	0.001751
0.867745	1.496086	0.001747
0.870866	1.496046	0.001743
0.873986	1.496006	0.001739
0.877106	1.495967	0.001735
0.880224	1.495929	0.001730
0.883341	1.495891	0.001726
0.886458	1.495853	0.001722
0.889574	1.495816	0.001719
0.892689	1.495779	0.001715
0.895803	1.495743	0.001711
0.898917	1.495707	0.001707
0.902029	1.495672	0.001703
0.905141	1.495637	0.001699
0.908252	1.495602	0.001696
0.911362	1.495568	0.001692
0.914471	1.495534	0.001688
0.917579	1.495500	0.001685
0.920686	1.495467	0.001681
0.923792	1.495434	0.001678
0.926898	1.495402	0.001674
0.930002	1.495370	0.001671
0.933106	1.495338	0.001667
0.936209	1.495307	0.001664
0.939311	1.495276	0.001660
0.942412	1.495245	0.001657
0.945512	1.495215	0.001654
0.948611	1.495185	0.001650
0.951709	1.495155	0.001647
0.954806	1.495126	0.001644
0.957902	1.495096	0.001641
0.960998	1.495068	0.001637
0.964092	1.495039	0.001634
0.967186	1.495011	0.001631
0.970278	1.494983	0.001628
0.973370	1.494955	0.001625
0.976461	1.494928	0.001622
0.979550	1.494901	0.001619
0.982639	1.494874	0.001616
0.985727	1.494848	0.001613
0.988813	1.494822	0.001610
0.991899	1.494796	0.001607
0.994984	1.494770	0.001604
0.998068	1.494745	0.001601
1.012269	1.494631	0.001588
1.019077	1.494578	0.001582
1.025884	1.494526	0.001576
1.032690	1.494475	0.001570
1.039496	1.494426	0.001564
1.046301	1.494377	0.001559
1.053105	1.494330	0.001553
1.059909	1.494283	0.001548
1.066713	1.494238	0.001542
1.073516	1.494193	0.001537
1.080319	1.494149	0.001532
1.087121	1.494106	0.001527
1.093924	1.494064	0.001522
1.100726	1.494022	0.001517
1.107529	1.493982	0.001512
1.114331	1.493942	0.001507
1.121133	1.493903	0.001502
1.127935	1.493865	0.001498
1.134738	1.493827	0.001493
1.141541	1.493790	0.001488
1.148344	1.493754	0.001484
1.155148	1.493719	0.001480
1.161952	1.493684	0.001475
1.168756	1.493650	0.001471
1.175561	1.493616	0.001467
1.182367	1.493583	0.001463
1.189173	1.493551	0.001458
1.195980	1.493519	0.001454
1.202788	1.493487	0.001450
1.209596	1.493457	0.001446
1.216406	1.493426	0.001443
1.223216	1.493397	0.001439
1.230028	1.493368	0.001435
1.236840	1.493339	0.001431
1.243654	1.493311	0.001428
1.250469	1.493283	0.001424
1.257286	1.493256	0.001420
1.264103	1.493229	0.001417
1.270922	1.493202	0.001413
1.277743	1.493176	0.001410
1.284565	1.493151	0.001407
1.291388	1.493126	0.001403
1.298214	1.493101	0.001400
1.305040	1.493077	0.001397
1.311869	1.493053	0.001393
1.318700	1.493029	0.001390
1.325532	1.493006	0.001387
1.332366	1.492983	0.001384
1.339203	1.492961	0.001381
1.346041	1.492939	0.001378
1.352882	1.492917	0.001375
1.359724	1.492895	0.001372
1.366569	1.492874	0.001369
1.373417	1.492854	0.001366
1.380266	1.492833	0.001363
1.387118	1.492813	0.001360
1.393973	1.492793	0.001358
1.400830	1.492773	0.001355
1.407690	1.492754	0.001352
1.414552	1.492735	0.001349
1.421418	1.492716	0.001347
1.428286	1.492698	0.001344
1.435156	1.492680	0.001342
1.442030	1.492662	0.001339
1.448907	1.492644	0.001336
1.455787	1.492627	0.001334
1.462669	1.492609	0.001331
1.469555	1.492592	0.001329
1.476445	1.492576	0.001327
1.483337	1.492559	0.001324
1.490233	1.492543	0.001322
1.497132	1.492527	0.001319
1.504035	1.492511	0.001317
1.510942	1.492495	0.001315
1.517851	1.492480	0.001312
1.524765	1.492465	0.001310
1.531682	1.492450	0.001308
1.538603	1.492435	0.001306
1.545528	1.492420	0.001303
1.552457	1.492406	0.001301
1.559389	1.492392	0.001299
1.566326	1.492378	0.001297
1.573267	1.492364	0.001295
1.580212	1.492350	0.001293
1.587161	1.492337	0.001291
1.594114	1.492323	0.001289
1.601072	1.492310	0.001287
1.608034	1.492297	0.001285
1.615000	1.492284	0.001283
1.621971	1.492272	0.001281
1.628947	1.492259	0.001279
1.635927	1.492247	0.001277
1.642912	1.492235	0.001275
1.649901	1.492223	0.001273
1.656896	1.492211	0.001271
1.663895	1.492199	0.001269
1.670899	1.492187	0.001267
1.677908	1.492176	0.001265
1.684922	1.492164	0.001264
