Material: organic / C32H44N2O6 - SQIB / Funke-alpha
Optical constants. S. Funke, M. Duwe, F. Balzer, P. H. Thiesen, K. Hingerl, M. Schiek. Determining the dielectric tensor of micro-textured organic thin films by imaging Mueller matrix ellipsometry. J. Phys. Chem. Lett. 12, 3053-3058 (2021) (Numerical data kindly provided by Manuela Schiek)
Comments: nα, kα (c-axis).
Conditions: {"direction": "alpha"}
wavelength (um)	n	k
0.450000	1.12243	0.06148
0.451128	1.11603	0.06294
0.452256	1.10954	0.06445
0.453383	1.10294	0.06600
0.454511	1.09624	0.06760
0.455639	1.08944	0.06926
0.456767	1.08254	0.07097
0.457895	1.07552	0.07274
0.459023	1.06839	0.07457
0.460150	1.06114	0.07646
0.461278	1.05377	0.07842
0.462406	1.04628	0.08045
0.463534	1.03866	0.08255
0.464662	1.03091	0.08473
0.465789	1.02303	0.08698
0.466917	1.01501	0.08932
0.468045	1.00685	0.09175
0.469173	0.99854	0.09428
0.470301	0.99008	0.09690
0.471429	0.98146	0.09963
0.472556	0.97269	0.10246
0.473684	0.96375	0.10541
0.474812	0.95464	0.10849
0.475940	0.94535	0.11170
0.477068	0.93589	0.11504
0.478195	0.92624	0.11853
0.479323	0.91641	0.12218
0.480451	0.90637	0.12599
0.481579	0.89614	0.12998
0.482707	0.88570	0.13415
0.483835	0.87505	0.13853
0.484962	0.86418	0.14312
0.486090	0.85309	0.14794
0.487218	0.84177	0.15300
0.488346	0.83022	0.15833
0.489474	0.81843	0.16393
0.490602	0.80641	0.16985
0.491729	0.79415	0.17608
0.492857	0.78164	0.18267
0.493985	0.76889	0.18963
0.495113	0.75590	0.19700
0.496241	0.74267	0.20480
0.497368	0.72921	0.21307
0.498496	0.71554	0.22185
0.499624	0.70166	0.23117
0.500752	0.68759	0.24107
0.501880	0.67335	0.25160
0.503008	0.65899	0.26279
0.504135	0.64453	0.27468
0.505263	0.63002	0.28731
0.506391	0.61552	0.30073
0.507519	0.60109	0.31495
0.508647	0.58680	0.33001
0.509774	0.57273	0.34591
0.510902	0.55895	0.36265
0.512030	0.54555	0.38022
0.513158	0.53263	0.39860
0.514286	0.52024	0.41773
0.515414	0.50847	0.43758
0.516541	0.49738	0.45806
0.517669	0.48701	0.47910
0.518797	0.47738	0.50063
0.519925	0.46853	0.52257
0.521053	0.46045	0.54484
0.522180	0.45313	0.56736
0.523308	0.44656	0.59009
0.524436	0.44072	0.61295
0.525564	0.43558	0.63590
0.526692	0.43110	0.65891
0.527820	0.42725	0.68193
0.528947	0.42400	0.70493
0.530075	0.42132	0.72791
0.531203	0.41917	0.75084
0.532331	0.41754	0.77372
0.533459	0.41639	0.79653
0.534586	0.41569	0.81926
0.535714	0.41543	0.84192
0.536842	0.41559	0.86450
0.537970	0.41614	0.88701
0.539098	0.41708	0.90944
0.540226	0.41839	0.93180
0.541353	0.42005	0.95409
0.542481	0.42205	0.97631
0.543609	0.42439	0.99846
0.544737	0.42706	1.02055
0.545865	0.43005	1.04258
0.546992	0.43335	1.06455
0.548120	0.43696	1.08647
0.549248	0.44088	1.10833
0.550376	0.44509	1.13014
0.551504	0.44961	1.15190
0.552632	0.45442	1.17360
0.553759	0.45952	1.19526
0.554887	0.46491	1.21687
0.556015	0.47059	1.23842
0.557143	0.47656	1.25992
0.558271	0.48281	1.28137
0.559399	0.48934	1.30276
0.560526	0.49616	1.32409
0.561654	0.50325	1.34535
0.562782	0.51061	1.36655
0.563910	0.51824	1.38768
0.565038	0.52614	1.40873
0.566165	0.53429	1.42971
0.567293	0.54270	1.45060
0.568421	0.55134	1.47141
0.569549	0.56022	1.49212
0.570677	0.56932	1.51274
0.571805	0.57863	1.53327
0.572932	0.58814	1.55371
0.574060	0.59782	1.57405
0.575188	0.60768	1.59430
0.576316	0.61768	1.61446
0.577444	0.62781	1.63454
0.578571	0.63804	1.65455
0.579699	0.64837	1.67450
0.580827	0.65877	1.69442
0.581955	0.66922	1.71431
0.583083	0.67970	1.73421
0.584211	0.69019	1.75413
0.585338	0.70068	1.77413
0.586466	0.71115	1.79422
0.587594	0.72159	1.81445
0.588722	0.73200	1.83488
0.589850	0.74238	1.85553
0.590977	0.75271	1.87648
0.592105	0.76303	1.89777
0.593233	0.77333	1.91946
0.594361	0.78365	1.94160
0.595489	0.79401	1.96427
0.596617	0.80445	1.98751
0.597744	0.81502	2.01139
0.598872	0.82575	2.03596
0.600000	0.83672	2.06128
0.601128	0.84800	2.08740
0.602256	0.85964	2.11436
0.603383	0.87174	2.14222
0.604511	0.88437	2.17100
0.605639	0.89764	2.20074
0.606767	0.91164	2.23148
0.607895	0.92646	2.26322
0.609023	0.94223	2.29600
0.610150	0.95905	2.32982
0.611278	0.97704	2.36468
0.612406	0.99632	2.40058
0.613534	1.01703	2.43751
0.614662	1.03929	2.47546
0.615789	1.06325	2.51441
0.616917	1.08906	2.55431
0.618045	1.11686	2.59513
0.619173	1.14683	2.63683
0.620301	1.17913	2.67932
0.621429	1.21394	2.72254
0.622556	1.25144	2.76639
0.623684	1.29184	2.81077
0.624812	1.33534	2.85552
0.625940	1.38216	2.90050
0.627068	1.43251	2.94552
0.628195	1.48663	2.99035
0.629323	1.54473	3.03474
0.630451	1.60706	3.07836
0.631579	1.67382	3.12088
0.632707	1.74523	3.16187
0.633835	1.82146	3.20086
0.634962	1.90265	3.23732
0.636090	1.98891	3.27065
0.637218	2.08025	3.30016
0.638346	2.17660	3.32513
0.639474	2.27780	3.34478
0.640602	2.38354	3.35827
0.641729	2.49335	3.36476
0.642857	2.60662	3.36343
0.643985	2.72253	3.35352
0.645113	2.84009	3.33434
0.646241	2.95813	3.30538
0.647368	3.07535	3.26631
0.648496	3.19034	3.21706
0.649624	3.30164	3.15781
0.650752	3.40785	3.08903
0.651880	3.50762	3.01150
0.653008	3.59982	2.92621
0.654135	3.68350	2.83436
0.655263	3.75799	2.73730
0.656391	3.82292	2.63642
0.657519	3.87815	2.53313
0.658647	3.92385	2.42876
0.659774	3.96036	2.32451
0.660902	3.98821	2.22146
0.662030	4.00805	2.12048
0.663158	4.02061	2.02231
0.664286	4.02664	1.92749
0.665414	4.02691	1.83642
0.666541	4.02216	1.74936
0.667669	4.01310	1.66646
0.668797	4.00036	1.58778
0.669925	3.98454	1.51329
0.671053	3.96617	1.44291
0.672180	3.94571	1.37653
0.673308	3.92358	1.31398
0.674436	3.90013	1.25509
0.675564	3.87566	1.19969
0.676692	3.85045	1.14758
0.677820	3.82471	1.09856
0.678947	3.79863	1.05246
0.680075	3.77238	1.00908
0.681203	3.74608	0.96825
0.682331	3.71984	0.92981
0.683459	3.69376	0.89360
0.684586	3.66791	0.85946
0.685714	3.64235	0.82726
0.686842	3.61713	0.79686
0.687970	3.59229	0.76815
0.689098	3.56785	0.74100
0.690226	3.54385	0.71532
0.691353	3.52029	0.69101
0.692481	3.49719	0.66797
0.693609	3.47455	0.64613
0.694737	3.45238	0.62540
0.695865	3.43069	0.60571
0.696992	3.40946	0.58700
0.698120	3.38869	0.56920
0.699248	3.36839	0.55225
0.700376	3.34854	0.53611
0.701504	3.32914	0.52072
0.702632	3.31017	0.50604
0.703759	3.29163	0.49202
0.704887	3.27352	0.47863
0.706015	3.25582	0.46583
0.707143	3.23851	0.45358
0.708271	3.22160	0.44186
0.709399	3.20507	0.43062
0.710526	3.18891	0.41986
0.711654	3.17312	0.40953
0.712782	3.15767	0.39962
0.713910	3.14257	0.39011
0.715038	3.12781	0.38097
0.716165	3.11336	0.37218
0.717293	3.09923	0.36372
0.718421	3.08541	0.35559
0.719549	3.07189	0.34775
0.720677	3.05865	0.34021
0.721805	3.04569	0.33293
0.722932	3.03301	0.32592
0.724060	3.02059	0.31915
0.725188	3.00843	0.31261
0.726316	2.99652	0.30630
0.727444	2.98485	0.30021
0.728571	2.97342	0.29432
0.729699	2.96222	0.28862
0.730827	2.95124	0.28311
0.731955	2.94048	0.27777
0.733083	2.92993	0.27261
0.734211	2.91959	0.26761
0.735338	2.90944	0.26276
0.736466	2.89949	0.25806
0.737594	2.88973	0.25351
0.738722	2.88015	0.24909
0.739850	2.87075	0.24480
0.740977	2.86152	0.24064
0.742105	2.85247	0.23660
0.743233	2.84358	0.23267
0.744361	2.83485	0.22886
0.745489	2.82627	0.22515
0.746617	2.81785	0.22155
0.747744	2.80958	0.21804
0.748872	2.80145	0.21463
0.750000	2.79346	0.21132
0.751128	2.78561	0.20809
0.752256	2.77789	0.20494
0.753383	2.77031	0.20188
0.754511	2.76285	0.19889
0.755639	2.75551	0.19599
0.756767	2.74830	0.19315
0.757895	2.74121	0.19039
0.759023	2.73423	0.18770
0.760150	2.72736	0.18507
0.761278	2.72061	0.18250
0.762406	2.71396	0.18000
0.763534	2.70741	0.17756
0.764662	2.70097	0.17517
0.765789	2.69463	0.17284
0.766917	2.68839	0.17056
0.768045	2.68224	0.16834
0.769173	2.67619	0.16617
0.770301	2.67023	0.16405
0.771429	2.66435	0.16197
0.772556	2.65857	0.15994
0.773684	2.65287	0.15795
0.774812	2.64725	0.15601
0.775940	2.64172	0.15411
0.777068	2.63626	0.15225
0.778195	2.63089	0.15043
0.779323	2.62559	0.14865
0.780451	2.62036	0.14690
0.781579	2.61521	0.14519
0.782707	2.61013	0.14352
0.783835	2.60512	0.14188
0.784962	2.60018	0.14027
0.786090	2.59531	0.13870
0.787218	2.59050	0.13716
0.788346	2.58576	0.13564
0.789474	2.58109	0.13416
0.790602	2.57647	0.13271
0.791729	2.57192	0.13128
0.792857	2.56742	0.12988
0.793985	2.56299	0.12851
0.795113	2.55861	0.12716
0.796241	2.55429	0.12584
0.797368	2.55002	0.12454
0.798496	2.54581	0.12327
0.799624	2.54165	0.12202
0.800752	2.53755	0.12079
0.801880	2.53349	0.11959
0.803008	2.52949	0.11840
0.804135	2.52554	0.11724
0.805263	2.52163	0.11610
0.806391	2.51777	0.11498
0.807519	2.51396	0.11387
0.808647	2.51019	0.11279
0.809774	2.50647	0.11172
0.810902	2.50280	0.11068
0.812030	2.49916	0.10965
0.813158	2.49557	0.10864
0.814286	2.49203	0.10764
0.815414	2.48852	0.10666
0.816541	2.48505	0.10570
0.817669	2.48163	0.10475
0.818797	2.47824	0.10382
0.819925	2.47489	0.10290
0.821053	2.47158	0.10200
0.822180	2.46831	0.10111
0.823308	2.46507	0.10024
0.824436	2.46187	0.09938
0.825564	2.45871	0.09853
0.826692	2.45558	0.09770
0.827820	2.45248	0.09687
0.828947	2.44942	0.09607
0.830075	2.44639	0.09527
0.831203	2.44339	0.09449
0.832331	2.44043	0.09371
0.833459	2.43749	0.09295
0.834586	2.43459	0.09220
0.835714	2.43172	0.09146
0.836842	2.42888	0.09074
0.837970	2.42607	0.09002
0.839098	2.42329	0.08931
0.840226	2.42053	0.08862
0.841353	2.41781	0.08793
0.842481	2.41511	0.08725
0.843609	2.41244	0.08658
0.844737	2.40980	0.08593
0.845865	2.40718	0.08528
0.846992	2.40459	0.08464
0.848120	2.40203	0.08401
0.849248	2.39949	0.08339
0.850376	2.39698	0.08277
0.851504	2.39449	0.08217
0.852632	2.39202	0.08157
0.853759	2.38958	0.08098
0.854887	2.38717	0.08040
0.856015	2.38477	0.07982
0.857143	2.38240	0.07926
0.858271	2.38006	0.07870
0.859399	2.37773	0.07815
0.860526	2.37543	0.07760
0.861654	2.37315	0.07706
0.862782	2.37088	0.07653
0.863910	2.36865	0.07601
0.865038	2.36643	0.07549
0.866165	2.36423	0.07498
0.867293	2.36205	0.07448
0.868421	2.35989	0.07398
0.869549	2.35776	0.07349
0.870677	2.35564	0.07300
0.871805	2.35354	0.07253
0.872932	2.35146	0.07205
0.874060	2.34940	0.07158
0.875188	2.34735	0.07112
0.876316	2.34533	0.07066
0.877444	2.34332	0.07021
0.878571	2.34133	0.06977
0.879699	2.33936	0.06933
0.880827	2.33741	0.06889
0.881955	2.33547	0.06846
0.883083	2.33355	0.06804
0.884211	2.33164	0.06762
0.885338	2.32975	0.06720
0.886466	2.32788	0.06679
0.887594	2.32603	0.06638
0.888722	2.32419	0.06598
0.889850	2.32236	0.06559
0.890977	2.32055	0.06519
0.892105	2.31876	0.06481
0.893233	2.31698	0.06442
0.894361	2.31521	0.06404
0.895489	2.31346	0.06367
0.896617	2.31173	0.06330
0.897744	2.31001	0.06293
0.898872	2.30830	0.06257
0.900000	2.30661	0.06221
