Material: organic / (C2H4)n - polyethylene / Zhang
Optical constants. X. Zhang, J. Qiu, X. Li, J. Zhao, L. Liu. Complex refractive indices measurements of polymers in visible and near-infrared bands, Appl. Opt. 59, 2337-2344 (2020)
Comments: Normal temperature and pressure. Manufacturer: Chenghang plastic material, China.
Specs: {"n_absolute": true, "wavelength_vacuum": false}
wavelength (um)	n	k
0.40	1.61027	2.31E-06
0.41	1.60595	1.99E-06
0.42	1.60212	1.76E-06
0.43	1.59847	1.59E-06
0.44	1.59528	1.48E-06
0.45	1.59247	1.40E-06
0.46	1.58988	1.37E-06
0.47	1.58716	1.35E-06
0.48	1.58496	1.33E-06
0.49	1.58304	1.35E-06
0.50	1.58111	1.32E-06
0.51	1.57927	1.36E-06
0.52	1.57769	1.36E-06
0.53	1.57630	1.35E-06
0.54	1.57470	1.33E-06
0.55	1.57333	1.32E-06
0.56	1.57194	1.36E-06
0.57	1.57086	1.40E-06
0.58	1.56993	1.39E-06
0.59	1.56904	1.38E-06
0.60	1.56811	1.29E-06
0.61	1.56696	1.29E-06
0.62	1.56627	1.25E-06
0.63	1.56527	1.23E-06
0.64	1.56478	1.17E-06
0.65	1.56368	1.09E-06
0.66	1.56317	1.01E-06
0.67	1.56225	9.51E-07
0.68	1.56199	9.11E-07
0.69	1.56131	8.72E-07
0.70	1.56052	8.64E-07
0.71	1.56013	8.60E-07
0.72	1.55933	8.52E-07
0.73	1.55868	8.32E-07
0.74	1.55854	8.28E-07
0.75	1.55817	7.84E-07
0.76	1.55795	7.43E-07
0.77	1.55723	7.56E-07
0.78	1.55583	7.45E-07
0.79	1.55630	7.64E-07
0.80	1.55533	7.56E-07
0.81	1.55526	7.49E-07
0.82	1.55541	8.66E-07
0.83	1.55505	1.17E-06
0.84	1.55462	6.77E-07
0.85	1.55439	7.58E-07
0.86	1.55405	7.04E-07
0.87	1.55374	6.26E-07
0.88	1.55330	7.57E-06
0.89	1.55313	7.81E-06
0.90	1.55288	7.73E-06
0.91	1.55265	7.75E-06
0.92	1.55233	7.45E-06
0.93	1.55218	7.75E-06
0.94	1.55185	7.79E-06
0.95	1.55163	7.85E-06
0.96	1.55154	1.14E-06
0.97	1.55126	4.00E-06
0.98	1.55096	4.12E-06
0.99	1.55074	5.11E-06
1.00	1.55073	9.11E-06
1.01	1.55055	1.02E-06
1.02	1.55051	1.08E-06
1.03	1.54909	1.19E-06
1.04	1.54870	1.26E-06
1.05	1.54866	1.22E-06
1.06	1.54817	1.15E-06
1.07	1.54801	1.09E-06
1.08	1.54785	1.14E-06
1.09	1.54786	8.04E-07
1.10	1.54759	1.23E-06
1.11	1.54701	1.79E-06
1.12	1.54718	3.28E-06
1.13	1.54732	6.05E-06
1.14	1.54683	3.69E-06
1.15	1.54682	3.17E-06
1.16	1.54667	3.65E-06
1.17	1.54670	4.30E-06
1.18	1.54643	5.02E-06
1.19	1.54625	4.41E-06
1.20	1.54635	2.84E-06
1.21	1.54546	2.13E-06
1.22	1.54564	1.77E-06
1.23	1.54575	1.67E-06
1.24	1.54566	1.48E-06
1.25	1.54493	1.43E-06
1.26	1.54539	1.10E-06
1.27	1.54541	1.63E-06
1.28	1.54486	1.59E-06
1.29	1.54418	1.58E-06
1.30	1.54486	1.56E-06
1.31	1.54437	1.73E-06
1.32	1.54434	1.77E-06
1.33	1.54438	2.08E-06
1.34	1.54445	2.37E-06
1.35	1.54489	3.75E-06
1.36	1.54397	5.65E-06
1.37	1.54399	5.95E-06
1.38	1.54403	7.38E-06
1.39	1.54421	7.40E-06
1.40	1.54335	8.39E-06
1.41	1.54360	9.28E-06
1.42	1.54367	9.06E-06
1.43	1.54349	7.88E-06
1.44	1.54380	6.34E-06
1.45	1.54297	5.54E-06
1.46	1.54245	5.43E-06
1.47	1.54268	4.67E-06
1.48	1.54327	3.52E-06
1.49	1.54355	3.57E-06
1.50	1.54294	3.48E-06
1.51	1.54210	3.14E-06
1.52	1.54268	2.69E-06
1.53	1.54223	2.82E-06
1.54	1.54211	2.65E-06
1.55	1.54261	2.45E-06
1.56	1.54214	3.09E-06
1.57	1.54238	3.08E-06
1.58	1.54202	3.40E-06
1.59	1.54144	3.55E-06
1.60	1.54167	4.29E-06
1.61	1.54219	6.02E-06
1.62	1.54238	8.80E-06
1.63	1.54210	1.22E-05
1.64	1.54127	2.89E-05
1.65	1.54081	6.78E-05
1.66	1.54155	1.13E-04
1.67	1.54127	7.27E-05
1.68	1.54210	5.66E-05
1.69	1.54258	4.59E-05
1.70	1.54123	4.27E-05
1.71	1.54143	4.01E-05
1.72	1.54138	4.38E-05
1.73	1.54115	4.50E-05
1.74	1.54141	3.58E-05
1.75	1.54083	2.86E-05
1.76	1.54126	2.70E-05
1.77	1.54061	2.56E-05
1.78	1.53999	2.09E-05
1.79	1.54181	2.01E-05
1.80	1.54077	2.10E-05
1.81	1.54049	2.14E-05
1.82	1.54054	2.04E-05
1.83	1.53862	2.07E-05
1.84	1.54038	1.69E-05
1.85	1.54067	1.65E-05
1.86	1.54099	1.76E-05
1.87	1.54014	1.95E-05
1.88	1.54026	1.90E-05
1.89	1.54093	2.49E-05
1.90	1.54183	4.51E-05
1.91	1.53869	5.06E-05
1.92	1.54006	3.61E-05
1.93	1.54081	2.77E-05
1.94	1.53976	2.83E-05
1.95	1.54076	3.33E-05
1.96	1.53965	2.90E-05
1.97	1.54023	2.14E-05
1.98	1.53927	1.89E-05
1.99	1.54049	1.90E-05
2.00	1.53997	1.91E-05
