Material: main / WS2 / Vyshnevyy-o
Optical constants. A. A. Vyshnevyy, G. A. Ermolaev, D. V. Grudinin, K. V. Voronin, I. Kharichkin, A. Mazitov, I. A. Kruglov, D. I. Yakubovky, P. Mishra, R. V. Kirtaev, A. V. Arsenin, K. S. Novoselov, L. Martin-Moreno, V. S. Volkov. Van der Waals Materials for overcoming fundamental limitations in photonic integrated circuitry, Nano Lett., 23, 8057â€“8064 (2023) (Numerical data kindly provided by Georgy Ermolaev)
Comments: Bulk WS2. Ordinary ray (o).
wavelength (um)	n	k
0.360	3.13052	2.00536
0.364	3.16566	2.08462
0.368	3.20916	2.15764
0.372	3.25994	2.22400
0.376	3.31698	2.28340
0.380	3.37922	2.33559
0.384	3.44560	2.38045
0.388	3.51504	2.41795
0.392	3.58643	2.44821
0.396	3.65869	2.47151
0.400	3.73071	2.48834
0.404	3.80144	2.49939
0.408	3.86991	2.50567
0.412	3.93530	2.50850
0.416	3.99700	2.50958
0.420	4.05482	2.51111
0.424	4.10919	2.51585
0.428	4.16160	2.52719
0.432	4.21534	2.54908
0.436	4.27668	2.58554
0.440	4.35661	2.63900
0.444	4.47213	2.70602
0.448	4.64393	2.76907
0.452	4.88255	2.78805
0.456	5.16105	2.71010
0.460	5.40693	2.51538
0.464	5.55492	2.25078
0.468	5.60011	1.98735
0.472	5.57810	1.76487
0.476	5.52405	1.58929
0.480	5.45885	1.45237
0.484	5.39215	1.34415
0.488	5.32749	1.25687
0.492	5.26559	1.18535
0.496	5.20595	1.12660
0.500	5.14755	1.07959
0.504	5.08942	1.04553
0.508	5.03166	1.02918
0.512	4.98037	1.04179
0.516	4.96717	1.09792
0.520	5.06772	1.14496
0.524	5.19353	1.02787
0.528	5.18137	0.86939
0.532	5.11759	0.77167
0.536	5.05433	0.71203
0.540	4.99885	0.67037
0.544	4.94988	0.63790
0.548	4.90555	0.61085
0.552	4.86444	0.58747
0.556	4.82555	0.56691
0.560	4.78816	0.54874
0.564	4.75172	0.53274
0.568	4.71578	0.51886
0.572	4.67993	0.50713
0.576	4.64379	0.49769
0.580	4.60695	0.49082
0.584	4.56896	0.48692
0.588	4.52930	0.48662
0.592	4.48733	0.49089
0.596	4.44231	0.50121
0.600	4.39337	0.51995
0.604	4.33962	0.55095
0.608	4.28062	0.60081
0.612	4.21801	0.68112
0.616	4.16099	0.81232
0.620	4.14399	1.02595
0.624	4.27014	1.33598
0.628	4.70576	1.58462
0.632	5.28185	1.38177
0.636	5.47191	0.88662
0.640	5.37074	0.54047
0.644	5.22163	0.36028
0.648	5.09356	0.26659
0.652	4.99205	0.21429
0.656	4.91151	0.18266
0.660	4.84632	0.16202
0.664	4.79233	0.14759
0.668	4.74664	0.13686
0.672	4.70725	0.12847
0.676	4.67275	0.12160
0.680	4.64214	0.11578
0.684	4.61470	0.11070
0.688	4.59001	0.10606
0.692	4.56744	0.10156
0.696	4.54655	0.09718
0.700	4.52705	0.09293
0.704	4.50873	0.08882
0.708	4.49142	0.08484
0.712	4.47500	0.08099
0.716	4.45936	0.07728
0.720	4.44442	0.07368
0.724	4.43011	0.07022
0.728	4.41637	0.06687
0.732	4.40315	0.06365
0.736	4.39040	0.06054
0.740	4.37808	0.05754
0.744	4.36618	0.05465
0.748	4.35465	0.05186
0.752	4.34347	0.04918
0.756	4.33263	0.04660
0.760	4.32209	0.04412
0.764	4.31185	0.04173
0.768	4.30188	0.03943
0.772	4.29217	0.03722
0.776	4.28271	0.03510
0.780	4.27349	0.03306
0.784	4.26450	0.03110
0.788	4.25572	0.02923
0.792	4.24714	0.02742
0.796	4.23877	0.02570
0.800	4.23058	0.02404
0.804	4.22258	0.02246
0.808	4.21475	0.02095
0.812	4.20709	0.01950
0.816	4.19960	0.01812
0.820	4.19226	0.01680
0.824	4.18508	0.01554
0.828	4.17804	0.01434
0.832	4.17115	0.01320
0.836	4.16440	0.01212
0.840	4.15778	0.01110
0.844	4.15130	0.01012
0.848	4.14494	0.00920
0.852	4.13871	0.00833
0.856	4.13259	0.00751
0.860	4.12660	0.00674
0.864	4.12073	0.00602
0.868	4.11496	0.00535
0.872	4.10931	0.00471
0.876	4.10376	0.00413
0.880	4.09833	0.00358
0.884	4.09299	0.00308
0.888	4.08776	0.00262
0.892	4.08263	0.00220
0.896	4.07760	0.00182
0.900	4.07266	0.00148
0.904	4.06782	0.00118
0.908	4.06308	9.10127E-04
0.912	4.05843	6.78749E-04
0.916	4.05387	4.82573E-04
0.920	4.04941	3.20840E-04
0.924	4.04504	1.92812E-04
0.928	4.04076	9.77743E-05
0.932	4.03658	3.50318E-05
0.936	4.03249	3.90961E-06
0.940	4.02852	0
0.944	4.02465	0
0.948	4.02087	0
0.952	4.01718	0
0.956	4.01356	0
0.960	4.01003	0
0.964	4.00656	0
0.968	4.00316	0
0.972	3.99983	0
0.976	3.99657	0
0.980	3.99336	0
0.984	3.99022	0
0.988	3.98713	0
0.992	3.98410	0
0.996	3.98113	0
1.000	3.97821	0
1.004	3.97533	0
1.008	3.97251	0
1.012	3.96974	0
1.016	3.96701	0
1.020	3.96433	0
1.024	3.96169	0
1.028	3.95910	0
1.032	3.95655	0
1.036	3.95404	0
1.040	3.95157	0
1.044	3.94914	0
1.048	3.94675	0
1.052	3.94439	0
1.056	3.94208	0
1.060	3.93979	0
1.064	3.93754	0
1.068	3.93533	0
1.072	3.93315	0
1.076	3.93100	0
1.080	3.92889	0
1.084	3.92680	0
1.088	3.92475	0
1.092	3.92272	0
1.096	3.92072	0
1.100	3.91876	0
1.104	3.91682	0
1.108	3.91490	0
1.112	3.91302	0
1.116	3.91116	0
1.120	3.90933	0
1.124	3.90752	0
1.128	3.90573	0
1.132	3.90397	0
1.136	3.90224	0
1.140	3.90052	0
1.144	3.89883	0
1.148	3.89717	0
1.152	3.89552	0
1.156	3.89389	0
1.160	3.89229	0
1.164	3.89071	0
1.168	3.88915	0
1.172	3.88760	0
1.176	3.88608	0
1.180	3.88458	0
1.184	3.88309	0
1.188	3.88163	0
1.192	3.88018	0
1.196	3.87875	0
1.200	3.87734	0
1.204	3.87594	0
1.208	3.87456	0
1.212	3.87320	0
1.216	3.87186	0
1.220	3.87053	0
1.224	3.86921	0
1.228	3.86792	0
1.232	3.86663	0
1.236	3.86537	0
1.240	3.86411	0
1.244	3.86287	0
1.248	3.86165	0
1.252	3.86044	0
1.256	3.85925	0
1.260	3.85806	0
1.264	3.85689	0
1.268	3.85574	0
1.272	3.85460	0
1.276	3.85347	0
1.280	3.85235	0
1.284	3.85125	0
1.288	3.85015	0
1.292	3.84907	0
1.296	3.84800	0
1.300	3.84695	0
1.304	3.84590	0
1.308	3.84487	0
1.312	3.84384	0
1.316	3.84283	0
1.320	3.84183	0
1.324	3.84084	0
1.328	3.83986	0
1.332	3.83889	0
1.336	3.83793	0
1.340	3.83698	0
1.344	3.83604	0
1.348	3.83511	0
1.352	3.83419	0
1.356	3.83328	0
1.360	3.83237	0
1.364	3.83148	0
1.368	3.83060	0
1.372	3.82972	0
1.376	3.82886	0
1.380	3.82800	0
1.384	3.82715	0
1.388	3.82631	0
1.392	3.82548	0
1.396	3.82466	0
1.400	3.82384	0
1.404	3.82303	0
1.408	3.82223	0
1.412	3.82144	0
1.416	3.82066	0
1.420	3.81988	0
1.424	3.81911	0
1.428	3.81835	0
1.432	3.81759	0
1.436	3.81685	0
1.440	3.81611	0
1.444	3.81537	0
1.448	3.81465	0
1.452	3.81393	0
1.456	3.81321	0
1.460	3.81251	0
1.464	3.81181	0
1.468	3.81111	0
1.472	3.81043	0
1.476	3.80975	0
1.480	3.80907	0
1.484	3.80840	0
1.488	3.80774	0
1.492	3.80709	0
1.496	3.80644	0
1.500	3.80579	0
1.504	3.80515	0
1.508	3.80452	0
1.512	3.80389	0
1.516	3.80327	0
1.520	3.80265	0
1.524	3.80204	0
1.528	3.80144	0
1.532	3.80084	0
1.536	3.80024	0
1.540	3.79965	0
1.544	3.79907	0
1.548	3.79849	0
1.552	3.79791	0
1.556	3.79734	0
1.560	3.79678	0
1.564	3.79622	0
1.568	3.79566	0
1.572	3.79511	0
1.576	3.79457	0
1.580	3.79403	0
1.584	3.79349	0
1.588	3.79296	0
1.592	3.79243	0
1.596	3.79190	0
1.600	3.79139	0
1.604	3.79087	0
1.608	3.79036	0
1.612	3.78985	0
1.616	3.78935	0
1.620	3.78885	0
1.624	3.78836	0
1.628	3.78787	0
1.632	3.78738	0
1.636	3.78690	0
1.640	3.78642	0
1.644	3.78595	0
1.648	3.78548	0
1.652	3.78501	0
1.656	3.78455	0
1.660	3.78409	0
1.664	3.78363	0
1.668	3.78318	0
1.672	3.78273	0
1.676	3.78228	0
1.680	3.78184	0
1.684	3.78140	0
1.688	3.78097	0
1.692	3.78054	0
1.696	3.78011	0
1.700	3.77968	0
