Material: main / WSe2 / Jin
Optical constants. X. Jin, V. Aglieri, Y.-G. Jeong, A. Pezeshki, L. Skokan, M. Shagar, Y. Jia, P. Bianucci, A. Ruediger, E. Orgiu, A. Toma, L. Razzari. Enhanced terahertz spectroscopy of a monolayer transition metal dichalcogenide. Adv. Funct. Mater. 35, 2419841 (2025) (Numerical data and calculation script kindly provided by Dr. Xin Jin) [Calculation script (Python)]
Comments: Monolayer WSe2.
wavelength (um)	n	k
2.9979e+01	6.0586e-01	2.1270e-02
3.0024e+01	6.0230e-01	2.1657e-02
3.0070e+01	5.9868e-01	2.2055e-02
3.0115e+01	5.9499e-01	2.2465e-02
3.0160e+01	5.9123e-01	2.2888e-02
3.0206e+01	5.8740e-01	2.3324e-02
3.0252e+01	5.8349e-01	2.3775e-02
3.0298e+01	5.7952e-01	2.4240e-02
3.0344e+01	5.7546e-01	2.4721e-02
3.0390e+01	5.7133e-01	2.5218e-02
3.0436e+01	5.6711e-01	2.5732e-02
3.0483e+01	5.6281e-01	2.6264e-02
3.0529e+01	5.5841e-01	2.6815e-02
3.0576e+01	5.5393e-01	2.7385e-02
3.0623e+01	5.4935e-01	2.7977e-02
3.0670e+01	5.4468e-01	2.8592e-02
3.0717e+01	5.3990e-01	2.9230e-02
3.0765e+01	5.3502e-01	2.9892e-02
3.0812e+01	5.3002e-01	3.0582e-02
3.0860e+01	5.2492e-01	3.1299e-02
3.0907e+01	5.1969e-01	3.2047e-02
3.0955e+01	5.1434e-01	3.2827e-02
3.1003e+01	5.0886e-01	3.3640e-02
3.1052e+01	5.0325e-01	3.4490e-02
3.1100e+01	4.9750e-01	3.5380e-02
3.1148e+01	4.9161e-01	3.6311e-02
3.1197e+01	4.8556e-01	3.7287e-02
3.1246e+01	4.7935e-01	3.8312e-02
3.1295e+01	4.7298e-01	3.9390e-02
3.1344e+01	4.6643e-01	4.0524e-02
3.1393e+01	4.5970e-01	4.1720e-02
3.1443e+01	4.5277e-01	4.2984e-02
3.1492e+01	4.4564e-01	4.4321e-02
3.1542e+01	4.3830e-01	4.5738e-02
3.1592e+01	4.3073e-01	4.7244e-02
3.1642e+01	4.2292e-01	4.8847e-02
3.1692e+01	4.1486e-01	5.0558e-02
3.1743e+01	4.0653e-01	5.2390e-02
3.1793e+01	3.9792e-01	5.4355e-02
3.1844e+01	3.8901e-01	5.6471e-02
3.1895e+01	3.7978e-01	5.8756e-02
3.1946e+01	3.7020e-01	6.1233e-02
3.1997e+01	3.6027e-01	6.3930e-02
3.2048e+01	3.4994e-01	6.6878e-02
3.2100e+01	3.3921e-01	7.0117e-02
3.2152e+01	3.2803e-01	7.3695e-02
3.2204e+01	3.1640e-01	7.7668e-02
3.2256e+01	3.0428e-01	8.2108e-02
3.2308e+01	2.9165e-01	8.7103e-02
3.2360e+01	2.7850e-01	9.2758e-02
3.2413e+01	2.6485e-01	9.9206e-02
3.2465e+01	2.5073e-01	1.0660e-01
3.2518e+01	2.3621e-01	1.1511e-01
3.2571e+01	2.2146e-01	1.2493e-01
3.2624e+01	2.0669e-01	1.3622e-01
3.2678e+01	1.9224e-01	1.4907e-01
3.2731e+01	1.7847e-01	1.6346e-01
3.2785e+01	1.6575e-01	1.7920e-01
3.2839e+01	1.5433e-01	1.9598e-01
3.2893e+01	1.4432e-01	2.1343e-01
3.2947e+01	1.3571e-01	2.3121e-01
3.3002e+01	1.2835e-01	2.4905e-01
3.3057e+01	1.2210e-01	2.6677e-01
3.3111e+01	1.1678e-01	2.8426e-01
3.3166e+01	1.1224e-01	3.0147e-01
3.3222e+01	1.0836e-01	3.1837e-01
3.3277e+01	1.0502e-01	3.3497e-01
3.3333e+01	1.0213e-01	3.5126e-01
3.3388e+01	9.9641e-02	3.6728e-01
3.3444e+01	9.7478e-02	3.8305e-01
3.3500e+01	9.5598e-02	3.9858e-01
3.3557e+01	9.3963e-02	4.1390e-01
3.3613e+01	9.2543e-02	4.2904e-01
3.3670e+01	9.1312e-02	4.4400e-01
3.3727e+01	9.0247e-02	4.5882e-01
3.3784e+01	8.9333e-02	4.7351e-01
3.3841e+01	8.8552e-02	4.8810e-01
3.3898e+01	8.7894e-02	5.0258e-01
3.3956e+01	8.7346e-02	5.1699e-01
3.4014e+01	8.6902e-02	5.3133e-01
3.4072e+01	8.6551e-02	5.4562e-01
3.4130e+01	8.6289e-02	5.5988e-01
3.4189e+01	8.6109e-02	5.7410e-01
3.4247e+01	8.6007e-02	5.8832e-01
3.4306e+01	8.5979e-02	6.0253e-01
3.4365e+01	8.6021e-02	6.1674e-01
3.4424e+01	8.6131e-02	6.3098e-01
3.4484e+01	8.6306e-02	6.4525e-01
3.4544e+01	8.6544e-02	6.5955e-01
3.4603e+01	8.6843e-02	6.7390e-01
3.4664e+01	8.7203e-02	6.8831e-01
3.4724e+01	8.7622e-02	7.0278e-01
3.4784e+01	8.8100e-02	7.1733e-01
3.4845e+01	8.8636e-02	7.3197e-01
3.4906e+01	8.9230e-02	7.4670e-01
3.4967e+01	8.9883e-02	7.6153e-01
3.5028e+01	9.0594e-02	7.7648e-01
3.5090e+01	9.1365e-02	7.9155e-01
3.5152e+01	9.2196e-02	8.0675e-01
3.5214e+01	9.3088e-02	8.2210e-01
3.5276e+01	9.4042e-02	8.3759e-01
3.5338e+01	9.5060e-02	8.5325e-01
3.5401e+01	9.6143e-02	8.6907e-01
3.5464e+01	9.7294e-02	8.8508e-01
3.5527e+01	9.8514e-02	9.0129e-01
3.5590e+01	9.9806e-02	9.1770e-01
3.5654e+01	1.0117e-01	9.3432e-01
3.5718e+01	1.0262e-01	9.5117e-01
3.5782e+01	1.0414e-01	9.6827e-01
3.5846e+01	1.0575e-01	9.8561e-01
3.5910e+01	1.0745e-01	1.0032e+00
3.5975e+01	1.0924e-01	1.0211e+00
3.6040e+01	1.1112e-01	1.0393e+00
3.6105e+01	1.1311e-01	1.0578e+00
3.6171e+01	1.1521e-01	1.0767e+00
3.6236e+01	1.1742e-01	1.0958e+00
3.6302e+01	1.1975e-01	1.1154e+00
3.6368e+01	1.2220e-01	1.1353e+00
3.6435e+01	1.2480e-01	1.1557e+00
3.6501e+01	1.2753e-01	1.1764e+00
3.6568e+01	1.3042e-01	1.1976e+00
3.6635e+01	1.3348e-01	1.2193e+00
3.6703e+01	1.3670e-01	1.2415e+00
3.6770e+01	1.4012e-01	1.2642e+00
3.6838e+01	1.4374e-01	1.2875e+00
3.6906e+01	1.4757e-01	1.3114e+00
3.6974e+01	1.5163e-01	1.3358e+00
3.7043e+01	1.5595e-01	1.3610e+00
3.7112e+01	1.6054e-01	1.3868e+00
3.7181e+01	1.6542e-01	1.4134e+00
3.7250e+01	1.7062e-01	1.4408e+00
3.7320e+01	1.7616e-01	1.4690e+00
3.7390e+01	1.8209e-01	1.4981e+00
3.7460e+01	1.8843e-01	1.5281e+00
3.7530e+01	1.9522e-01	1.5592e+00
3.7601e+01	2.0252e-01	1.5913e+00
3.7672e+01	2.1036e-01	1.6245e+00
3.7743e+01	2.1881e-01	1.6590e+00
3.7815e+01	2.2793e-01	1.6949e+00
3.7886e+01	2.3779e-01	1.7321e+00
3.7959e+01	2.4849e-01	1.7708e+00
3.8031e+01	2.6012e-01	1.8112e+00
3.8103e+01	2.7279e-01	1.8534e+00
3.8176e+01	2.8664e-01	1.8974e+00
3.8249e+01	3.0182e-01	1.9435e+00
3.8323e+01	3.1852e-01	1.9919e+00
3.8396e+01	3.3694e-01	2.0426e+00
3.8470e+01	3.5734e-01	2.0960e+00
3.8545e+01	3.8002e-01	2.1522e+00
3.8619e+01	4.0534e-01	2.2115e+00
3.8694e+01	4.3373e-01	2.2742e+00
3.8769e+01	4.6573e-01	2.3406e+00
3.8845e+01	5.0198e-01	2.4109e+00
3.8920e+01	5.4326e-01	2.4855e+00
3.8996e+01	5.9056e-01	2.5647e+00
3.9073e+01	6.4508e-01	2.6488e+00
3.9149e+01	7.0836e-01	2.7382e+00
3.9226e+01	7.8229e-01	2.8328e+00
3.9303e+01	8.6927e-01	2.9325e+00
3.9381e+01	9.7228e-01	3.0369e+00
3.9459e+01	1.0950e+00	3.1447e+00
3.9537e+01	1.2420e+00	3.2535e+00
3.9615e+01	1.4184e+00	3.3592e+00
3.9694e+01	1.6295e+00	3.4546e+00
3.9773e+01	1.8799e+00	3.5290e+00
3.9853e+01	2.1703e+00	3.5666e+00
3.9932e+01	2.4947e+00	3.5481e+00
4.0012e+01	2.8353e+00	3.4541e+00
4.0093e+01	3.1622e+00	3.2742e+00
4.0173e+01	3.4399e+00	3.0155e+00
4.0254e+01	3.6412e+00	2.7041e+00
4.0336e+01	3.7570e+00	2.3751e+00
4.0417e+01	3.7967e+00	2.0591e+00
4.0499e+01	3.7787e+00	1.7749e+00
4.0582e+01	3.7227e+00	1.5294e+00
4.0664e+01	3.6443e+00	1.3223e+00
4.0747e+01	3.5547e+00	1.1495e+00
4.0831e+01	3.4611e+00	1.0057e+00
4.0914e+01	3.3679e+00	8.8578e-01
4.0998e+01	3.2775e+00	7.8542e-01
4.1083e+01	3.1913e+00	7.0090e-01
4.1167e+01	3.1098e+00	6.2925e-01
4.1252e+01	3.0332e+00	5.6810e-01
4.1338e+01	2.9615e+00	5.1554e-01
4.1424e+01	2.8944e+00	4.7008e-01
4.1510e+01	2.8316e+00	4.3051e-01
4.1596e+01	2.7729e+00	3.9586e-01
4.1683e+01	2.7179e+00	3.6535e-01
4.1770e+01	2.6663e+00	3.3834e-01
4.1858e+01	2.6179e+00	3.1432e-01
4.1946e+01	2.5724e+00	2.9286e-01
4.2034e+01	2.5296e+00	2.7361e-01
4.2123e+01	2.4892e+00	2.5626e-01
4.2212e+01	2.4510e+00	2.4058e-01
4.2301e+01	2.4149e+00	2.2634e-01
4.2391e+01	2.3808e+00	2.1339e-01
4.2481e+01	2.3484e+00	2.0156e-01
4.2572e+01	2.3176e+00	1.9072e-01
4.2663e+01	2.2883e+00	1.8077e-01
4.2754e+01	2.2605e+00	1.7161e-01
4.2846e+01	2.2339e+00	1.6316e-01
4.2938e+01	2.2086e+00	1.5534e-01
4.3031e+01	2.1844e+00	1.4809e-01
4.3123e+01	2.1612e+00	1.4136e-01
4.3217e+01	2.1391e+00	1.3509e-01
4.3311e+01	2.1178e+00	1.2925e-01
4.3405e+01	2.0975e+00	1.2379e-01
4.3499e+01	2.0779e+00	1.1868e-01
4.3594e+01	2.0591e+00	1.1390e-01
4.3690e+01	2.0411e+00	1.0941e-01
4.3785e+01	2.0237e+00	1.0519e-01
4.3882e+01	2.0070e+00	1.0121e-01
4.3978e+01	1.9908e+00	9.7469e-02
4.4075e+01	1.9753e+00	9.3937e-02
4.4173e+01	1.9602e+00	9.0599e-02
4.4271e+01	1.9457e+00	8.7442e-02
4.4369e+01	1.9317e+00	8.4453e-02
4.4468e+01	1.9182e+00	8.1620e-02
4.4567e+01	1.9050e+00	7.8931e-02
4.4667e+01	1.8923e+00	7.6377e-02
4.4767e+01	1.8800e+00	7.3949e-02
4.4868e+01	1.8681e+00	7.1638e-02
4.4969e+01	1.8566e+00	6.9437e-02
4.5070e+01	1.8453e+00	6.7339e-02
4.5172e+01	1.8345e+00	6.5338e-02
4.5275e+01	1.8239e+00	6.3427e-02
4.5378e+01	1.8136e+00	6.1600e-02
4.5481e+01	1.8036e+00	5.9854e-02
4.5585e+01	1.7939e+00	5.8182e-02
4.5689e+01	1.7845e+00	5.6582e-02
4.5794e+01	1.7753e+00	5.5048e-02
4.5899e+01	1.7663e+00	5.3578e-02
4.6005e+01	1.7576e+00	5.2166e-02
4.6111e+01	1.7492e+00	5.0812e-02
4.6218e+01	1.7409e+00	4.9510e-02
4.6325e+01	1.7328e+00	4.8259e-02
4.6433e+01	1.7250e+00	4.7056e-02
4.6541e+01	1.7173e+00	4.5898e-02
4.6650e+01	1.7098e+00	4.4783e-02
4.6759e+01	1.7025e+00	4.3709e-02
4.6869e+01	1.6954e+00	4.2674e-02
4.6979e+01	1.6884e+00	4.1676e-02
4.7090e+01	1.6816e+00	4.0713e-02
4.7201e+01	1.6749e+00	3.9784e-02
4.7313e+01	1.6684e+00	3.8887e-02
4.7426e+01	1.6621e+00	3.8020e-02
4.7539e+01	1.6558e+00	3.7182e-02
4.7652e+01	1.6498e+00	3.6372e-02
4.7766e+01	1.6438e+00	3.5589e-02
4.7881e+01	1.6380e+00	3.4831e-02
4.7996e+01	1.6323e+00	3.4097e-02
4.8111e+01	1.6267e+00	3.3387e-02
4.8227e+01	1.6212e+00	3.2699e-02
4.8344e+01	1.6158e+00	3.2032e-02
4.8462e+01	1.6106e+00	3.1385e-02
4.8580e+01	1.6054e+00	3.0758e-02
4.8698e+01	1.6004e+00	3.0150e-02
4.8817e+01	1.5954e+00	2.9559e-02
4.8937e+01	1.5906e+00	2.8987e-02
4.9057e+01	1.5858e+00	2.8430e-02
4.9178e+01	1.5812e+00	2.7890e-02
4.9299e+01	1.5766e+00	2.7365e-02
4.9421e+01	1.5721e+00	2.6855e-02
4.9544e+01	1.5677e+00	2.6358e-02
4.9667e+01	1.5633e+00	2.5876e-02
4.9791e+01	1.5591e+00	2.5407e-02
4.9915e+01	1.5549e+00	2.4950e-02
5.0041e+01	1.5508e+00	2.4506e-02
5.0166e+01	1.5468e+00	2.4073e-02
5.0293e+01	1.5428e+00	2.3652e-02
5.0420e+01	1.5389e+00	2.3242e-02
5.0547e+01	1.5351e+00	2.2842e-02
5.0676e+01	1.5313e+00	2.2453e-02
5.0805e+01	1.5276e+00	2.2073e-02
5.0934e+01	1.5240e+00	2.1703e-02
5.1064e+01	1.5204e+00	2.1342e-02
5.1195e+01	1.5169e+00	2.0990e-02
5.1327e+01	1.5134e+00	2.0647e-02
5.1459e+01	1.5100e+00	2.0311e-02
5.1592e+01	1.5067e+00	1.9984e-02
5.1726e+01	1.5034e+00	1.9665e-02
5.1860e+01	1.5001e+00	1.9353e-02
5.1995e+01	1.4970e+00	1.9049e-02
5.2131e+01	1.4938e+00	1.8751e-02
5.2267e+01	1.4907e+00	1.8461e-02
5.2405e+01	1.4877e+00	1.8177e-02
5.2543e+01	1.4847e+00	1.7899e-02
5.2681e+01	1.4817e+00	1.7628e-02
5.2821e+01	1.4788e+00	1.7363e-02
5.2961e+01	1.4759e+00	1.7103e-02
5.3102e+01	1.4731e+00	1.6850e-02
5.3243e+01	1.4703e+00	1.6601e-02
5.3386e+01	1.4676e+00	1.6358e-02
5.3529e+01	1.4649e+00	1.6121e-02
5.3673e+01	1.4622e+00	1.5888e-02
5.3817e+01	1.4596e+00	1.5660e-02
5.3963e+01	1.4570e+00	1.5437e-02
5.4109e+01	1.4545e+00	1.5219e-02
5.4256e+01	1.4520e+00	1.5005e-02
5.4404e+01	1.4495e+00	1.4796e-02
5.4552e+01	1.4470e+00	1.4591e-02
5.4702e+01	1.4446e+00	1.4390e-02
5.4852e+01	1.4423e+00	1.4193e-02
5.5003e+01	1.4399e+00	1.4000e-02
5.5155e+01	1.4376e+00	1.3810e-02
5.5308e+01	1.4353e+00	1.3625e-02
5.5462e+01	1.4331e+00	1.3443e-02
5.5616e+01	1.4308e+00	1.3264e-02
5.5771e+01	1.4286e+00	1.3089e-02
5.5928e+01	1.4265e+00	1.2917e-02
5.6085e+01	1.4243e+00	1.2749e-02
5.6243e+01	1.4222e+00	1.2584e-02
5.6402e+01	1.4201e+00	1.2422e-02
5.6561e+01	1.4181e+00	1.2262e-02
5.6722e+01	1.4161e+00	1.2106e-02
5.6884e+01	1.4141e+00	1.1953e-02
5.7046e+01	1.4121e+00	1.1802e-02
5.7210e+01	1.4101e+00	1.1654e-02
5.7374e+01	1.4082e+00	1.1509e-02
5.7539e+01	1.4063e+00	1.1366e-02
5.7706e+01	1.4044e+00	1.1226e-02
5.7873e+01	1.4026e+00	1.1088e-02
5.8041e+01	1.4007e+00	1.0953e-02
5.8210e+01	1.3989e+00	1.0820e-02
5.8381e+01	1.3971e+00	1.0690e-02
5.8552e+01	1.3954e+00	1.0561e-02
5.8724e+01	1.3936e+00	1.0435e-02
5.8897e+01	1.3919e+00	1.0311e-02
5.9072e+01	1.3902e+00	1.0189e-02
5.9247e+01	1.3885e+00	1.0069e-02
5.9423e+01	1.3868e+00	9.9513e-03
5.9601e+01	1.3852e+00	9.8353e-03
5.9779e+01	1.3835e+00	9.7213e-03
5.9958e+01	1.3819e+00	9.6091e-03
