Material: alloys / Zr-H / Palm
Optical constants. K. J. Palm, J. B. Murray, T. C. Narayan, J. N. Munday. Dynamic optical properties of metal hydrides, ACS Photonics 5, 4677-4686 (2018)(Numerical data kindly provided by Kevin Palm)
Comments: Zirconium Hydride, Under 7 bar H2 gas, Room temperature, 200 nm thin film, electron beam evaporated, vacuum annealed 2 hr 350 Â°C.
wavelength (um)	n	k
0.226076263	2.092956	1.763051
0.229268463	2.109772	1.751479
0.232460739	2.126589	1.738957
0.235653107	2.142972	1.725713
0.238845535	2.158598	1.711895
0.24203801	2.173159	1.697671
0.24523056	2.18646	1.683357
0.248423187	2.198508	1.669224
0.251615875	2.20937	1.655456
0.254808594	2.219146	1.642182
0.258001404	2.227959	1.629477
0.261194214	2.235912	1.617345
0.264387085	2.243062	1.605784
0.267580017	2.249456	1.594794
0.27077298	2.255131	1.584378
0.273965973	2.260113	1.574543
0.277158997	2.264424	1.565304
0.280352081	2.268094	1.55669
0.283545135	2.271163	1.548723
0.286738251	2.273667	1.541419
0.289931396	2.275635	1.534791
0.293124573	2.277082	1.528858
0.296317719	2.277996	1.523669
0.299510895	2.278405	1.519358
0.302704071	2.278438	1.516039
0.305897278	2.278253	1.513779
0.309090485	2.278029	1.51261
0.312283661	2.277965	1.51253
0.315476868	2.278281	1.513502
0.318670044	2.279252	1.515434
0.32186322	2.281185	1.518022
0.325056396	2.284116	1.520831
0.328249542	2.287932	1.523539
0.331442688	2.292463	1.525903
0.334635773	2.297511	1.527742
0.337828857	2.302851	1.528929
0.341021912	2.308239	1.529384
0.344214935	2.313403	1.529077
0.347407928	2.318005	1.528051
0.350600891	2.321724	1.52659
0.353793793	2.324496	1.525043
0.356986664	2.32636	1.523668
0.360179504	2.327399	1.522668
0.363372284	2.327718	1.522205
0.366565002	2.327445	1.522404
0.36975766	2.326717	1.523362
0.372950287	2.325686	1.52515
0.376142853	2.324516	1.527809
0.379335327	2.323395	1.531352
0.382527771	2.322545	1.535713
0.385720093	2.322102	1.540714
0.388912384	2.322108	1.546203
0.392104553	2.32257	1.552057
0.395296692	2.32348	1.558176
0.398488708	2.324816	1.564474
0.401680695	2.32655	1.570878
0.404872559	2.328645	1.577328
0.408064331	2.331064	1.583774
0.411256012	2.33376	1.590176
0.414447571	2.336689	1.596501
0.417639069	2.339797	1.602727
0.420830414	2.343026	1.608841
0.424021729	2.346311	1.614861
0.427212891	2.349619	1.620828
0.4304039	2.35294	1.626773
0.433594818	2.356269	1.632721
0.436785645	2.359608	1.638689
0.439976379	2.362959	1.644692
0.443166931	2.366328	1.650741
0.446357361	2.369721	1.656847
0.449547668	2.373146	1.663016
0.452737854	2.376611	1.669253
0.455927887	2.380124	1.675562
0.459117767	2.383695	1.681943
0.462307556	2.387334	1.688397
0.465497162	2.391052	1.694923
0.468686615	2.394859	1.701517
0.471875916	2.39877	1.708175
0.475065094	2.402798	1.714882
0.478254089	2.406947	1.721619
0.481442932	2.411216	1.728373
0.484631592	2.415604	1.735131
0.487820129	2.420107	1.741883
0.491008453	2.42472	1.748619
0.494196625	2.429439	1.755332
0.497384613	2.434259	1.762014
0.500572418	2.439174	1.768658
0.503760071	2.444181	1.775261
0.50694751	2.449273	1.781815
0.510134766	2.454444	1.788318
0.513321838	2.45969	1.794765
0.516508667	2.465005	1.801154
0.519695435	2.470383	1.807481
0.522881897	2.475821	1.813745
0.526068176	2.481312	1.819943
0.529254211	2.486851	1.826074
0.532440063	2.492433	1.832136
0.535625732	2.498055	1.838129
0.538811157	2.503709	1.844053
0.541996399	2.509393	1.849908
0.545181396	2.515102	1.855693
0.54836615	2.520833	1.86141
0.55155072	2.526583	1.867059
0.554735046	2.532346	1.87264
0.557919128	2.538122	1.878154
0.561102966	2.543906	1.883601
0.564286621	2.549696	1.888982
0.567470032	2.555489	1.894299
0.570653137	2.561281	1.899551
0.57383606	2.56707	1.904739
0.577018677	2.572855	1.909865
0.58020105	2.578632	1.914929
0.583383179	2.584398	1.919933
0.586565063	2.590152	1.924878
0.589746704	2.595891	1.929764
0.592927979	2.601613	1.934592
0.59610907	2.607316	1.939365
0.599289917	2.612998	1.944084
0.602470398	2.618655	1.948749
0.605650696	2.624287	1.953362
0.608830688	2.629891	1.957924
0.612010376	2.635465	1.962438
0.615189758	2.641006	1.966905
0.618368896	2.646512	1.971327
0.621547729	2.65198	1.975706
0.624726257	2.657407	1.980047
0.62790448	2.662792	1.984354
0.631082458	2.668136	1.988632
0.634260132	2.673439	1.992884
0.637437378	2.678702	1.997112
0.640614441	2.683927	2.00132
0.643791138	2.689113	2.005509
0.64696759	2.694262	2.009682
0.650143677	2.699375	2.013841
0.653319458	2.704454	2.017987
0.656494873	2.709499	2.022123
0.659669983	2.714512	2.026248
0.662844788	2.719493	2.030365
0.666019165	2.724445	2.034474
0.669193298	2.729369	2.038578
0.672367065	2.734264	2.042675
0.675540527	2.739134	2.046768
0.678713623	2.743978	2.050857
0.681886353	2.748798	2.054942
0.685058777	2.753596	2.059025
0.688230835	2.758371	2.063104
0.691402527	2.763126	2.067182
0.694573853	2.76786	2.071258
0.697744873	2.772576	2.075332
0.700915466	2.777274	2.079405
0.704085693	2.781955	2.083477
0.707255554	2.78662	2.087548
0.71042511	2.79127	2.091617
0.713594177	2.795906	2.095685
0.716762939	2.800528	2.099753
0.719931335	2.805137	2.103819
0.723099304	2.809735	2.107884
0.726266907	2.814322	2.111948
0.729434143	2.818899	2.11601
0.732600952	2.823467	2.120071
0.735767334	2.828027	2.124129
0.73893335	2.832578	2.128185
0.742098999	2.837124	2.132237
0.745264221	2.841662	2.136285
0.748429016	2.846195	2.140328
0.751593384	2.850722	2.144366
0.754757385	2.855242	2.148398
0.757920959	2.859758	2.152423
0.761084106	2.864267	2.156441
0.764246826	2.868771	2.160451
0.767409119	2.873269	2.164454
0.770570984	2.877761	2.168448
0.773732483	2.882247	2.172434
0.776893433	2.886728	2.176411
0.780054077	2.891202	2.180379
0.783214172	2.895671	2.184337
0.786373901	2.900133	2.188286
0.789533081	2.904589	2.192225
0.792691956	2.909038	2.196153
0.795850281	2.913481	2.200071
0.799008179	2.917917	2.203979
0.802165649	2.922346	2.207875
0.805322632	2.926769	2.211761
0.808479126	2.931183	2.215636
0.811635193	2.935591	2.2195
0.814790771	2.939991	2.223352
0.817945923	2.944382	2.227193
0.821100586	2.948766	2.231023
0.8242547	2.953142	2.234841
0.827408386	2.95751	2.238647
0.830561646	2.961869	2.242442
0.833714355	2.966218	2.246225
0.836866577	2.970559	2.249997
0.840018372	2.974891	2.253757
0.843169617	2.979213	2.257505
0.846320313	2.983526	2.261241
0.849470581	2.987828	2.264966
0.852620422	2.992121	2.268678
0.855769653	2.996402	2.27238
0.858918335	3.000674	2.276069
0.862066589	3.004934	2.279747
0.865214355	3.009183	2.283414
0.868361511	3.01342	2.287069
0.871508179	3.017646	2.290713
0.874654419	3.02186	2.294346
0.87780011	3.026061	2.297968
0.88094519	3.03025	2.301579
0.884089722	3.034426	2.305179
0.887233765	3.038589	2.308768
0.890377319	3.042737	2.312347
0.893520325	3.046872	2.315916
0.896662781	3.050992	2.319475
0.899804688	3.055098	2.323024
0.902945984	3.059188	2.326564
0.906086792	3.063262	2.330095
0.909227051	3.067318	2.333617
0.912366699	3.071358	2.337133
0.915505859	3.07538	2.340643
0.918644409	3.079385	2.344148
0.92178241	3.083373	2.34765
0.924919922	3.087344	2.351148
0.928056763	3.0913	2.354644
0.931193054	3.095239	2.358138
0.934328796	3.099164	2.361631
0.937463867	3.103073	2.365123
0.94059845	3.106968	2.368615
0.943732422	3.110849	2.372107
0.946865845	3.114717	2.375599
0.949998657	3.118572	2.379093
0.953130859	3.122414	2.382587
0.956262512	3.126244	2.386083
0.959393555	3.130063	2.38958
0.962523926	3.13387	2.39308
0.965653809	3.137667	2.396581
0.96878302	3.141454	2.400084
0.971911621	3.145231	2.40359
0.975039551	3.148998	2.407098
0.978166992	3.152757	2.410609
0.981293762	3.156507	2.414122
0.9844198	3.160249	2.417637
0.98754541	3.163984	2.421155
0.990670288	3.167711	2.424676
0.993794556	3.171432	2.4282
0.996918152	3.175146	2.431726
1.011449524	3.192359	2.448174
1.018225952	3.200356	2.455868
1.025004272	3.208341	2.463578
1.031784424	3.216316	2.471303
1.03856665	3.224285	2.479042
1.045350586	3.23225	2.486795
1.052136475	3.240213	2.494559
1.058924194	3.248177	2.502334
1.065713867	3.256144	2.510118
1.072505493	3.264116	2.51791
1.07929895	3.272094	2.525709
1.08609436	3.280081	2.533512
1.092891602	3.288077	2.541317
1.099690674	3.296084	2.549125
1.106491821	3.304104	2.556933
1.113294678	3.312137	2.564739
1.120099609	3.320184	2.572542
1.126906372	3.328248	2.580341
1.133714966	3.336326	2.588134
1.140525513	3.344422	2.595919
1.147337891	3.352535	2.603696
1.154152222	3.360665	2.611462
1.160968506	3.368814	2.619216
1.167786499	3.376981	2.626957
1.174606567	3.385166	2.634685
1.181428467	3.393369	2.642397
1.188252197	3.401591	2.650093
1.195077881	3.409831	2.657772
1.201905518	3.41809	2.665435
1.208734863	3.426368	2.673081
1.215566162	3.434666	2.680707
1.222399536	3.442984	2.688315
1.229234619	3.451323	2.695903
1.236071655	3.459683	2.70347
1.242910522	3.468065	2.711015
1.249751343	3.476469	2.718538
1.256593994	3.484895	2.726037
1.263438721	3.493344	2.733511
1.270285156	3.501815	2.74096
1.277133545	3.510309	2.748383
1.283983765	3.518827	2.755779
1.290835938	3.527369	2.763146
1.297689941	3.535933	2.770484
1.304545898	3.544522	2.777793
1.311403687	3.553134	2.78507
1.318263428	3.56177	2.792317
1.325125122	3.57043	2.799531
1.331988525	3.579114	2.806711
1.338853882	3.587821	2.813857
1.345721191	3.596553	2.820968
1.352590454	3.605309	2.828044
1.359461426	3.614088	2.835083
1.366334351	3.622891	2.842085
1.373209229	3.631719	2.849049
1.380085938	3.640569	2.855974
1.3869646	3.649444	2.86286
1.393844971	3.658342	2.869706
1.400727417	3.667263	2.876512
1.407611694	3.676208	2.883276
1.414497803	3.685176	2.889998
1.421385864	3.694168	2.896677
1.428275757	3.703183	2.903313
1.435167725	3.712221	2.909906
1.442061279	3.721282	2.916454
1.448956909	3.730366	2.922957
1.45585437	3.739473	2.929414
1.462753784	3.748603	2.935826
1.469655029	3.757756	2.942191
1.476558228	3.766931	2.948508
1.483463135	3.77613	2.954778
1.490370117	3.785351	2.960999
1.497278931	3.794596	2.967172
1.504189697	3.803863	2.973296
1.511102173	3.813154	2.97937
1.518016602	3.822467	2.985393
1.524932983	3.831805	2.991366
1.531851196	3.841165	2.997287
1.53877124	3.850549	3.003156
1.545693237	3.859956	3.008973
1.552617188	3.869388	3.014737
1.559542969	3.878844	3.020447
1.566470581	3.888324	3.026104
1.573400146	3.897829	3.031706
1.580331543	3.90736	3.037252
1.587264893	3.916916	3.042743
1.594199951	3.926498	3.048177
1.601137085	3.936108	3.053554
1.60807605	3.945744	3.058873
1.615016846	3.955408	3.064134
1.621959595	3.965101	3.069335
1.628904175	3.974824	3.074476
1.635850708	3.984577	3.079556
1.642799072	3.994362	3.084574
1.649749268	4.00418	3.089528
1.656701416	4.014032	3.094418
1.663655518	4.023921	3.099243
1.670611328	4.033847	3.103999
1.677569092	4.043814	3.108687
1.684528687	4.053823	3.113303
