Material: mixed gases / air / Shaw
Optical constants. M. J. Shaw, C. J. Hooker, D. C. Wilson. Measurement of the nonlinear refractive index of air and other gases at 248 nm. Opt. Commun. 103, 153-1960 (1993)
Comments: 10 ps at 248 nm. Spectral analysis of self-phase modulation.
Specs: {"n2_method": "SSPM", "pulse_duration": "10e-12", "temperature": 300, "pressure": 101325}
wavelength (um)	n	2
0.248	1.2e-22
