Material: main / Ta2O5 / Cheikh-amorphous-6.75-12-25
Optical constants. A. Cheikh, J. Gonçalves, C. Labbé, X. Portier, P. Marie, C. Frilay, O. Debieu, S. Duprey, W. Jadwisienczak, D. Ingram, J. Cardin. Tailoring the structural and optical properties of Ta2O5 thin films via radio frequency magnetron sputtering for high-refractive index transparent materials. J. Alloys Compd. 1040, 183273 (2025) (Numerical data kindly provided by Julien Cardin)
Comments: Ta2O5 amorphous thin film. Deposited by radio frequency magnetron sputtering at sputtering power density 6.75 W/cm2 under oxygen flow of 12 sccm. As deposited.
wavelength (um)	n	k
0.20667	2.58489	1.34764
0.20736	2.60034	1.33780
0.20805	2.61572	1.32756
0.20875	2.63100	1.31692
0.20946	2.64618	1.30589
0.21017	2.66124	1.29445
0.21088	2.67616	1.28260
0.21160	2.69093	1.27034
0.21233	2.70554	1.25768
0.21306	2.71997	1.24461
0.21379	2.73420	1.23113
0.21453	2.74821	1.21724
0.21528	2.76199	1.20295
0.21603	2.77553	1.18826
0.21678	2.78879	1.17317
0.21754	2.80177	1.15769
0.21831	2.81445	1.14182
0.21908	2.82681	1.12557
0.21986	2.83883	1.10895
0.22064	2.85050	1.09197
0.22143	2.86180	1.07463
0.22222	2.87270	1.05695
0.22302	2.88321	1.03894
0.22383	2.89329	1.02060
0.22464	2.90294	1.00197
0.22545	2.91213	0.98304
0.22628	2.92086	0.96384
0.22711	2.92910	0.94437
0.22794	2.93686	0.92467
0.22878	2.94411	0.90475
0.22963	2.95084	0.88462
0.23048	2.95705	0.86430
0.23134	2.96271	0.84382
0.23221	2.96784	0.82320
0.23308	2.97241	0.80245
0.23396	2.97642	0.78161
0.23485	2.97987	0.76069
0.23574	2.98275	0.73971
0.23664	2.98507	0.71869
0.23755	2.98681	0.69767
0.23846	2.98797	0.67666
0.23938	2.98857	0.65569
0.24031	2.98860	0.63477
0.24125	2.98806	0.61393
0.24219	2.98696	0.59320
0.24314	2.98530	0.57259
0.24409	2.98309	0.55213
0.24506	2.98034	0.53184
0.24603	2.97706	0.51173
0.24701	2.97325	0.49184
0.24800	2.96893	0.47217
0.24900	2.96410	0.45275
0.25000	2.95878	0.43360
0.25101	2.95299	0.41473
0.25203	2.94673	0.39615
0.25306	2.94002	0.37790
0.25410	2.93288	0.35997
0.25514	2.92531	0.34239
0.25620	2.91735	0.32516
0.25726	2.90899	0.30831
0.25833	2.90026	0.29184
0.25941	2.89117	0.27576
0.26050	2.88175	0.26009
0.26160	2.87200	0.24483
0.26271	2.86195	0.22999
0.26383	2.85162	0.21558
0.26496	2.84101	0.20161
0.26609	2.83015	0.18808
0.26724	2.81906	0.17500
0.26840	2.80775	0.16238
0.26957	2.79625	0.15021
0.27074	2.78456	0.13851
0.27193	2.77271	0.12728
0.27313	2.76071	0.11651
0.27434	2.74859	0.10622
0.27556	2.73635	0.09640
0.27679	2.72402	0.08706
0.27803	2.71162	0.07820
0.27928	2.69915	0.06981
0.28054	2.68665	0.06190
0.28182	2.67413	0.05447
0.28311	2.66160	0.04752
0.28440	2.64909	0.04105
0.28571	2.63661	0.03506
0.28704	2.62418	0.02954
0.28837	2.61183	0.02450
0.28972	2.59957	0.01994
0.29108	2.58743	0.01585
0.29245	2.57543	0.01224
0.29384	2.56359	0.00909
0.29524	2.55194	0.00642
0.29665	2.54051	0.00421
0.29808	2.52935	0.00247
0.29952	2.51849	0.00119
0.30097	2.50799	3.75328E-4
0.30244	2.49794	1.81991E-5
0.30392	2.48857	0
0.30542	2.47976	0
0.30693	2.47138	0
0.30846	2.46334	0
0.31000	2.45561	0
0.31156	2.44815	0
0.31313	2.44095	0
0.31472	2.43397	0
0.31633	2.42721	0
0.31795	2.42064	0
0.31959	2.41426	0
0.32124	2.40806	0
0.32292	2.40201	0
0.32461	2.39613	0
0.32632	2.39039	0
0.32804	2.38480	0
0.32979	2.37933	0
0.33155	2.37400	0
0.33333	2.36879	0
0.33514	2.36369	0
0.33696	2.35871	0
0.33880	2.35383	0
0.34066	2.34906	0
0.34254	2.34439	0
0.34444	2.33981	0
0.34637	2.33533	0
0.34831	2.33094	0
0.35028	2.32663	0
0.35227	2.32241	0
0.35429	2.31826	0
0.35632	2.31420	0
0.35838	2.31021	0
0.36047	2.30630	0
0.36257	2.30246	0
0.36471	2.29868	0
0.36686	2.29498	0
0.36905	2.29134	0
0.37126	2.28776	0
0.37349	2.28425	0
0.37576	2.28079	0
0.37805	2.27740	0
0.38037	2.27406	0
0.38272	2.27078	0
0.38509	2.26755	0
0.38750	2.26438	0
0.38994	2.26125	0
0.39241	2.25818	0
0.39490	2.25516	0
0.39744	2.25218	0
0.40000	2.24926	0
0.40260	2.24637	0
0.40523	2.24354	0
0.40789	2.24075	0
0.41060	2.23800	0
0.41333	2.23529	0
0.41611	2.23263	0
0.41892	2.23000	0
0.42177	2.22742	0
0.42466	2.22487	0
0.42759	2.22236	0
0.43056	2.21989	0
0.43357	2.21746	0
0.43662	2.21506	0
0.43972	2.21270	0
0.44286	2.21037	0
0.44604	2.20808	0
0.44928	2.20582	0
0.45255	2.20359	0
0.45588	2.20139	0
0.45926	2.19923	0
0.46269	2.19709	0
0.46617	2.19499	0
0.46970	2.19292	0
0.47328	2.19088	0
0.47692	2.18886	0
0.48062	2.18688	0
0.48438	2.18492	0
0.48819	2.18299	0
0.49206	2.18109	0
0.49600	2.17921	0
0.50000	2.17736	0
0.50407	2.17554	0
0.50820	2.17374	0
0.51240	2.17197	0
0.51667	2.17022	0
0.52101	2.16850	0
0.52542	2.16680	0
0.52991	2.16513	0
0.53448	2.16347	0
0.53913	2.16185	0
0.54386	2.16024	0
0.54867	2.15866	0
0.55357	2.15710	0
0.55856	2.15556	0
0.56364	2.15404	0
0.56881	2.15254	0
0.57407	2.15107	0
0.57944	2.14961	0
0.58491	2.14818	0
0.59048	2.14676	0
0.59615	2.14537	0
0.60194	2.14400	0
0.60784	2.14264	0
0.61386	2.14131	0
0.62000	2.13999	0
0.62626	2.13869	0
0.63265	2.13741	0
0.63918	2.13615	0
0.64583	2.13491	0
0.65263	2.13369	0
0.65957	2.13248	0
0.66667	2.13129	0
0.67391	2.13012	0
0.68132	2.12897	0
0.68889	2.12783	0
0.69663	2.12671	0
0.70455	2.12560	0
0.71264	2.12452	0
0.72093	2.12345	0
0.72941	2.12239	0
0.73810	2.12135	0
0.74699	2.12033	0
0.75610	2.11932	0
0.76543	2.11833	0
0.77500	2.11736	0
0.78481	2.11640	0
0.79487	2.11545	0
0.80519	2.11452	0
0.81579	2.11361	0
0.82667	2.11270	0
0.83784	2.11182	0
0.84932	2.11095	0
0.86111	2.11009	0
0.87324	2.10925	0
0.88571	2.10842	0
0.89855	2.10760	0
0.91176	2.10680	0
0.92537	2.10602	0
0.93939	2.10524	0
0.95385	2.10448	0
0.96875	2.10374	0
0.98413	2.10301	0
1.00000	2.10229	0
1.01639	2.10158	0
1.03333	2.10089	0
1.05085	2.10021	0
1.06897	2.09954	0
1.08772	2.09889	0
1.10714	2.09825	0
1.12727	2.09762	0
1.14815	2.09700	0
1.16981	2.09640	0
1.19231	2.09581	0
1.21569	2.09523	0
1.24000	2.09467	0
