Material: main / Ta2O5 / Cheikh-crystalline-3.28-8-750
Optical constants. A. Cheikh, J. Gonçalves, C. Labbé, X. Portier, P. Marie, C. Frilay, O. Debieu, S. Duprey, W. Jadwisienczak, D. Ingram, J. Cardin. Tailoring the structural and optical properties of Ta2O5 thin films via radio frequency magnetron sputtering for high-refractive index transparent materials. J. Alloys Compd. 1040, 183273 (2025) (Numerical data kindly provided by Julien Cardin)
Comments: Ta2O5 Crystalline (orthorhombic) thin film. Deposited by radio frequency magnetron sputtering at sputtering power density 3.28 W/cm2 under oxygen flow of 8 sccm. Annealed at 750 °C.
wavelength (um)	n	k
0.20667	1.99604	1.54497
0.20736	2.03016	1.54977
0.20805	2.06489	1.55325
0.20875	2.10017	1.55534
0.20946	2.13594	1.55597
0.21017	2.17211	1.55509
0.21088	2.20858	1.55264
0.21160	2.24526	1.54856
0.21233	2.28205	1.54281
0.21306	2.31882	1.53535
0.21379	2.35547	1.52618
0.21453	2.39186	1.51526
0.21528	2.42787	1.50260
0.21603	2.46337	1.48821
0.21678	2.49822	1.47212
0.21754	2.53231	1.45436
0.21831	2.56549	1.43500
0.21908	2.59766	1.41408
0.21986	2.62869	1.39171
0.22064	2.65848	1.36796
0.22143	2.68694	1.34293
0.22222	2.71397	1.31675
0.22302	2.73952	1.28951
0.22383	2.76351	1.26136
0.22464	2.78590	1.23241
0.22545	2.80667	1.20280
0.22628	2.82578	1.17265
0.22711	2.84325	1.14210
0.22794	2.85907	1.11127
0.22878	2.87327	1.08028
0.22963	2.88588	1.04924
0.23048	2.89694	1.01826
0.23134	2.90649	0.98745
0.23221	2.91459	0.95689
0.23308	2.92130	0.92666
0.23396	2.92670	0.89685
0.23485	2.93084	0.86751
0.23574	2.93379	0.83871
0.23664	2.93564	0.81048
0.23755	2.93645	0.78288
0.23846	2.93629	0.75594
0.23938	2.93524	0.72968
0.24031	2.93336	0.70412
0.24125	2.93072	0.67927
0.24219	2.92739	0.65516
0.24314	2.92342	0.63177
0.24409	2.91888	0.60911
0.24506	2.91381	0.58718
0.24603	2.90828	0.56598
0.24701	2.90233	0.54548
0.24800	2.89601	0.52568
0.24900	2.88936	0.50656
0.25000	2.88242	0.48812
0.25101	2.87522	0.47034
0.25203	2.86780	0.45319
0.25306	2.86019	0.43666
0.25410	2.85243	0.42073
0.25514	2.84452	0.40539
0.25620	2.83651	0.39061
0.25726	2.82842	0.37638
0.25833	2.82025	0.36268
0.25941	2.81203	0.34948
0.26050	2.80378	0.33677
0.26160	2.79551	0.32454
0.26271	2.78724	0.31276
0.26383	2.77898	0.30142
0.26496	2.77073	0.29049
0.26609	2.76251	0.27997
0.26724	2.75433	0.26985
0.26840	2.74619	0.26009
0.26957	2.73810	0.25069
0.27074	2.73007	0.24164
0.27193	2.72211	0.23292
0.27313	2.71421	0.22451
0.27434	2.70638	0.21641
0.27556	2.69863	0.20860
0.27679	2.69096	0.20108
0.27803	2.68337	0.19382
0.27928	2.67586	0.18682
0.28054	2.66843	0.18008
0.28182	2.66110	0.17356
0.28311	2.65385	0.16728
0.28440	2.64669	0.16122
0.28571	2.63961	0.15538
0.28704	2.63263	0.14973
0.28837	2.62574	0.14428
0.28972	2.61894	0.13902
0.29108	2.61222	0.13394
0.29245	2.60560	0.12903
0.29384	2.59907	0.12429
0.29524	2.59263	0.11970
0.29665	2.58627	0.11528
0.29808	2.58000	0.11100
0.29952	2.57382	0.10687
0.30097	2.56772	0.10287
0.30244	2.56171	0.09901
0.30392	2.55579	0.09527
0.30542	2.54995	0.09166
0.30693	2.54419	0.08816
0.30846	2.53851	0.08478
0.31000	2.53291	0.08151
0.31156	2.52739	0.07835
0.31313	2.52195	0.07529
0.31472	2.51659	0.07233
0.31633	2.51130	0.06946
0.31795	2.50608	0.06669
0.31959	2.50094	0.06401
0.32124	2.49588	0.06141
0.32292	2.49088	0.05890
0.32461	2.48596	0.05646
0.32632	2.48110	0.05411
0.32804	2.47631	0.05183
0.32979	2.47159	0.04963
0.33155	2.46693	0.04749
0.33333	2.46234	0.04543
0.33514	2.45782	0.04343
0.33696	2.45335	0.04149
0.33880	2.44895	0.03962
0.34066	2.44461	0.03781
0.34254	2.44033	0.03606
0.34444	2.43610	0.03436
0.34637	2.43194	0.03272
0.34831	2.42783	0.03114
0.35028	2.42378	0.02961
0.35227	2.41978	0.02812
0.35429	2.41584	0.02669
0.35632	2.41195	0.02531
0.35838	2.40811	0.02397
0.36047	2.40432	0.02268
0.36257	2.40059	0.02144
0.36471	2.39690	0.02024
0.36686	2.39327	0.01908
0.36905	2.38968	0.01796
0.37126	2.38614	0.01689
0.37349	2.38265	0.01585
0.37576	2.37920	0.01485
0.37805	2.37580	0.01390
0.38037	2.37245	0.01297
0.38272	2.36914	0.01209
0.38509	2.36587	0.01124
0.38750	2.36265	0.01042
0.38994	2.35947	0.00964
0.39241	2.35633	0.00890
0.39490	2.35324	0.00819
0.39744	2.35018	0.00751
0.40000	2.34717	0.00686
0.40260	2.34420	0.00624
0.40523	2.34127	0.00566
0.40789	2.33838	0.00510
0.41060	2.33552	0.00458
0.41333	2.33271	0.00408
0.41611	2.32994	0.00362
0.41892	2.32720	0.00318
0.42177	2.32451	0.00278
0.42466	2.32185	0.00240
0.42759	2.31923	0.00205
0.43056	2.31665	0.00173
0.43357	2.31411	0.00143
0.43662	2.31161	0.00117
0.43972	2.30915	9.30642E-4
0.44286	2.30673	7.19716E-4
0.44604	2.30434	5.36026E-4
0.44928	2.30200	3.79464E-4
0.45255	2.29971	2.49944E-4
0.45588	2.29745	1.47401E-4
0.45926	2.29524	7.17892E-5
0.46269	2.29308	2.30868E-5
0.46617	2.29097	1.29103E-6
0.46970	2.28893	0
0.47328	2.28694	0
0.47692	2.28501	0
0.48062	2.28312	0
0.48438	2.28127	0
0.48819	2.27946	0
0.49206	2.27768	0
0.49600	2.27595	0
0.50000	2.27425	0
0.50407	2.27258	0
0.50820	2.27094	0
0.51240	2.26933	0
0.51667	2.26776	0
0.52101	2.26621	0
0.52542	2.26469	0
0.52991	2.26320	0
0.53448	2.26173	0
0.53913	2.26029	0
0.54386	2.25888	0
0.54867	2.25749	0
0.55357	2.25613	0
0.55856	2.25479	0
0.56364	2.25347	0
0.56881	2.25217	0
0.57407	2.25090	0
0.57944	2.24965	0
0.58491	2.24842	0
0.59048	2.24721	0
0.59615	2.24602	0
0.60194	2.24485	0
0.60784	2.24370	0
0.61386	2.24257	0
0.62000	2.24146	0
0.62626	2.24036	0
0.63265	2.23929	0
0.63918	2.23823	0
0.64583	2.23719	0
0.65263	2.23617	0
0.65957	2.23517	0
0.66667	2.23418	0
0.67391	2.23321	0
0.68132	2.23225	0
0.68889	2.23131	0
0.69663	2.23039	0
0.70455	2.22948	0
0.71264	2.22858	0
0.72093	2.22770	0
0.72941	2.22684	0
0.73810	2.22599	0
0.74699	2.22516	0
0.75610	2.22434	0
0.76543	2.22353	0
0.77500	2.22274	0
0.78481	2.22196	0
0.79487	2.22119	0
0.80519	2.22044	0
0.81579	2.21970	0
0.82667	2.21898	0
0.83784	2.21826	0
0.84932	2.21756	0
0.86111	2.21687	0
0.87324	2.21620	0
0.88571	2.21554	0
0.89855	2.21488	0
0.91176	2.21424	0
0.92537	2.21362	0
0.93939	2.21300	0
0.95385	2.21240	0
0.96875	2.21180	0
0.98413	2.21122	0
1.00000	2.21065	0
1.01639	2.21009	0
1.03333	2.20954	0
1.05085	2.20901	0
1.06897	2.20848	0
1.08772	2.20796	0
1.10714	2.20746	0
1.12727	2.20696	0
1.14815	2.20648	0
1.16981	2.20600	0
1.19231	2.20554	0
1.21569	2.20509	0
1.24000	2.20464	0
