Material: main / Ta2O5 / Cheikh-crystalline-3.28-8-650
Optical constants. A. Cheikh, J. Gonçalves, C. Labbé, X. Portier, P. Marie, C. Frilay, O. Debieu, S. Duprey, W. Jadwisienczak, D. Ingram, J. Cardin. Tailoring the structural and optical properties of Ta2O5 thin films via radio frequency magnetron sputtering for high-refractive index transparent materials. J. Alloys Compd. 1040, 183273 (2025) (Numerical data kindly provided by Julien Cardin)
Comments: Ta2O5 Crystalline (orthorhombic) thin film. Deposited by radio frequency magnetron sputtering at sputtering power density 3.28 W/cm2 under oxygen flow of 8 sccm. Annealed at 650 °C.
wavelength (um)	n	k
0.20667	2.35219	1.61882
0.20736	2.38688	1.60697
0.20805	2.42118	1.59361
0.20875	2.45498	1.57875
0.20946	2.48818	1.56240
0.21017	2.52067	1.54461
0.21088	2.55234	1.52543
0.21160	2.58311	1.50489
0.21233	2.61288	1.48308
0.21306	2.64157	1.46005
0.21379	2.66909	1.43590
0.21453	2.69537	1.41070
0.21528	2.72036	1.38456
0.21603	2.74401	1.35756
0.21678	2.76626	1.32982
0.21754	2.78709	1.30144
0.21831	2.80647	1.27251
0.21908	2.82441	1.24315
0.21986	2.84088	1.21346
0.22064	2.85592	1.18354
0.22143	2.86952	1.15349
0.22222	2.88171	1.12339
0.22302	2.89253	1.09335
0.22383	2.90202	1.06343
0.22464	2.91021	1.03372
0.22545	2.91716	1.00428
0.22628	2.92291	0.97517
0.22711	2.92753	0.94647
0.22794	2.93107	0.91820
0.22878	2.93358	0.89043
0.22963	2.93513	0.86318
0.23048	2.93577	0.83648
0.23134	2.93557	0.81037
0.23221	2.93457	0.78487
0.23308	2.93284	0.75999
0.23396	2.93043	0.73573
0.23485	2.92739	0.71212
0.23574	2.92377	0.68916
0.23664	2.91963	0.66684
0.23755	2.91500	0.64517
0.23846	2.90994	0.62414
0.23938	2.90447	0.60374
0.24031	2.89865	0.58398
0.24125	2.89250	0.56483
0.24219	2.88607	0.54628
0.24314	2.87938	0.52833
0.24409	2.87246	0.51096
0.24506	2.86534	0.49416
0.24603	2.85805	0.47791
0.24701	2.85061	0.46220
0.24800	2.84305	0.44701
0.24900	2.83537	0.43233
0.25000	2.82761	0.41814
0.25101	2.81978	0.40443
0.25203	2.81189	0.39118
0.25306	2.80396	0.37838
0.25410	2.79600	0.36601
0.25514	2.78803	0.35406
0.25620	2.78005	0.34251
0.25726	2.77207	0.33135
0.25833	2.76411	0.32057
0.25941	2.75617	0.31015
0.26050	2.74826	0.30008
0.26160	2.74039	0.29034
0.26271	2.73256	0.28093
0.26383	2.72477	0.27184
0.26496	2.71704	0.26304
0.26609	2.70936	0.25454
0.26724	2.70174	0.24631
0.26840	2.69419	0.23836
0.26957	2.68670	0.23067
0.27074	2.67928	0.22322
0.27193	2.67193	0.21602
0.27313	2.66466	0.20905
0.27434	2.65745	0.20231
0.27556	2.65033	0.19578
0.27679	2.64328	0.18946
0.27803	2.63630	0.18333
0.27928	2.62941	0.17741
0.28054	2.62259	0.17167
0.28182	2.61586	0.16610
0.28311	2.60920	0.16071
0.28440	2.60262	0.15549
0.28571	2.59612	0.15043
0.28704	2.58970	0.14553
0.28837	2.58336	0.14077
0.28972	2.57709	0.13616
0.29108	2.57091	0.13169
0.29245	2.56480	0.12736
0.29384	2.55877	0.12315
0.29524	2.55281	0.11907
0.29665	2.54693	0.11512
0.29808	2.54113	0.11128
0.29952	2.53539	0.10755
0.30097	2.52974	0.10393
0.30244	2.52415	0.10042
0.30392	2.51864	0.09702
0.30542	2.51320	0.09371
0.30693	2.50782	0.09050
0.30846	2.50252	0.08738
0.31000	2.49729	0.08435
0.31156	2.49212	0.08141
0.31313	2.48702	0.07855
0.31472	2.48198	0.07577
0.31633	2.47701	0.07308
0.31795	2.47210	0.07046
0.31959	2.46726	0.06792
0.32124	2.46247	0.06544
0.32292	2.45775	0.06304
0.32461	2.45309	0.06071
0.32632	2.44849	0.05844
0.32804	2.44394	0.05624
0.32979	2.43946	0.05410
0.33155	2.43503	0.05202
0.33333	2.43065	0.05000
0.33514	2.42633	0.04804
0.33696	2.42207	0.04613
0.33880	2.41785	0.04428
0.34066	2.41369	0.04248
0.34254	2.40959	0.04073
0.34444	2.40553	0.03904
0.34637	2.40152	0.03739
0.34831	2.39756	0.03579
0.35028	2.39365	0.03423
0.35227	2.38979	0.03272
0.35429	2.38598	0.03126
0.35632	2.38221	0.02984
0.35838	2.37849	0.02846
0.36047	2.37481	0.02712
0.36257	2.37118	0.02582
0.36471	2.36759	0.02457
0.36686	2.36405	0.02335
0.36905	2.36054	0.02217
0.37126	2.35708	0.02102
0.37349	2.35366	0.01991
0.37576	2.35028	0.01884
0.37805	2.34694	0.01780
0.38037	2.34365	0.01680
0.38272	2.34039	0.01583
0.38509	2.33717	0.01489
0.38750	2.33398	0.01399
0.38994	2.33084	0.01311
0.39241	2.32773	0.01227
0.39490	2.32466	0.01146
0.39744	2.32163	0.01068
0.40000	2.31863	0.00993
0.40260	2.31567	0.00921
0.40523	2.31274	0.00852
0.40789	2.30985	0.00786
0.41060	2.30699	0.00722
0.41333	2.30417	0.00662
0.41611	2.30139	0.00604
0.41892	2.29863	0.00549
0.42177	2.29591	0.00497
0.42466	2.29323	0.00447
0.42759	2.29058	0.00400
0.43056	2.28796	0.00356
0.43357	2.28537	0.00314
0.43662	2.28282	0.00275
0.43972	2.28030	0.00239
0.44286	2.27782	0.00205
0.44604	2.27537	0.00174
0.44928	2.27295	0.00145
0.45255	2.27057	0.00119
0.45588	2.26822	9.57431E-4
0.45926	2.26591	7.48310E-4
0.46269	2.26363	5.64846E-4
0.46617	2.26139	4.07047E-4
0.46970	2.25919	2.74941E-4
0.47328	2.25703	1.68576E-4
0.47692	2.25490	8.80172E-5
0.48062	2.25282	3.33493E-5
0.48438	2.25079	4.67616E-6
0.48819	2.24881	0
0.49206	2.24689	0
0.49600	2.24503	0
0.50000	2.24320	0
0.50407	2.24141	0
0.50820	2.23966	0
0.51240	2.23795	0
0.51667	2.23627	0
0.52101	2.23462	0
0.52542	2.23300	0
0.52991	2.23141	0
0.53448	2.22986	0
0.53913	2.22833	0
0.54386	2.22683	0
0.54867	2.22535	0
0.55357	2.22390	0
0.55856	2.22248	0
0.56364	2.22108	0
0.56881	2.21971	0
0.57407	2.21835	0
0.57944	2.21703	0
0.58491	2.21572	0
0.59048	2.21444	0
0.59615	2.21317	0
0.60194	2.21193	0
0.60784	2.21071	0
0.61386	2.20951	0
0.62000	2.20833	0
0.62626	2.20717	0
0.63265	2.20603	0
0.63918	2.20491	0
0.64583	2.20381	0
0.65263	2.20272	0
0.65957	2.20166	0
0.66667	2.20061	0
0.67391	2.19957	0
0.68132	2.19856	0
0.68889	2.19756	0
0.69663	2.19658	0
0.70455	2.19561	0
0.71264	2.19467	0
0.72093	2.19373	0
0.72941	2.19281	0
0.73810	2.19191	0
0.74699	2.19102	0
0.75610	2.19015	0
0.76543	2.18930	0
0.77500	2.18845	0
0.78481	2.18762	0
0.79487	2.18681	0
0.80519	2.18601	0
0.81579	2.18522	0
0.82667	2.18445	0
0.83784	2.18369	0
0.84932	2.18295	0
0.86111	2.18221	0
0.87324	2.18149	0
0.88571	2.18079	0
0.89855	2.18009	0
0.91176	2.17941	0
0.92537	2.17874	0
0.93939	2.17809	0
0.95385	2.17744	0
0.96875	2.17681	0
0.98413	2.17619	0
1.00000	2.17558	0
1.01639	2.17499	0
1.03333	2.17440	0
1.05085	2.17383	0
1.06897	2.17327	0
1.08772	2.17272	0
1.10714	2.17218	0
1.12727	2.17165	0
1.14815	2.17114	0
1.16981	2.17063	0
1.19231	2.17013	0
1.21569	2.16965	0
1.24000	2.16918	0
