Material: main / Ta2O5 / Cheikh-amorphous-3.28-4-25
Optical constants. A. Cheikh, J. Gonçalves, C. Labbé, X. Portier, P. Marie, C. Frilay, O. Debieu, S. Duprey, W. Jadwisienczak, D. Ingram, J. Cardin. Tailoring the structural and optical properties of Ta2O5 thin films via radio frequency magnetron sputtering for high-refractive index transparent materials. J. Alloys Compd. 1040, 183273 (2025) (Numerical data kindly provided by Julien Cardin)
Comments: Ta2O5 amorphous thin film. Deposited by radio frequency magnetron sputtering at sputtering power density 3.28 W/cm2 under oxygen flow of 4 sccm. As deposited.
wavelength (um)	n	k
0.20667	2.58752	1.31746
0.20736	2.60139	1.30865
0.20805	2.61523	1.29953
0.20875	2.62901	1.29009
0.20946	2.64274	1.28031
0.21017	2.65640	1.27020
0.21088	2.66999	1.25976
0.21160	2.68348	1.24897
0.21233	2.69688	1.23784
0.21306	2.71016	1.22637
0.21379	2.72332	1.21454
0.21453	2.73634	1.20237
0.21528	2.74922	1.18984
0.21603	2.76193	1.17697
0.21678	2.77447	1.16374
0.21754	2.78682	1.15015
0.21831	2.79896	1.13622
0.21908	2.81089	1.12193
0.21986	2.82259	1.10730
0.22064	2.83404	1.09232
0.22143	2.84523	1.07700
0.22222	2.85614	1.06134
0.22302	2.86676	1.04535
0.22383	2.87708	1.02903
0.22464	2.88707	1.01238
0.22545	2.89673	0.99543
0.22628	2.90604	0.97817
0.22711	2.91498	0.96061
0.22794	2.92354	0.94276
0.22878	2.93170	0.92464
0.22963	2.93945	0.90625
0.23048	2.94678	0.88761
0.23134	2.95368	0.86873
0.23221	2.96012	0.84962
0.23308	2.96610	0.83030
0.23396	2.97160	0.81078
0.23485	2.97662	0.79109
0.23574	2.98115	0.77123
0.23664	2.98516	0.75123
0.23755	2.98866	0.73110
0.23846	2.99164	0.71086
0.23938	2.99408	0.69053
0.24031	2.99599	0.67014
0.24125	2.99735	0.64970
0.24219	2.99816	0.62923
0.24314	2.99842	0.60875
0.24409	2.99813	0.58830
0.24506	2.99728	0.56788
0.24603	2.99587	0.54752
0.24701	2.99391	0.52724
0.24800	2.99139	0.50707
0.24900	2.98832	0.48703
0.25000	2.98469	0.46713
0.25101	2.98053	0.44741
0.25203	2.97583	0.42788
0.25306	2.97059	0.40857
0.25410	2.96484	0.38949
0.25514	2.95857	0.37067
0.25620	2.95179	0.35213
0.25726	2.94452	0.33389
0.25833	2.93677	0.31597
0.25941	2.92855	0.29839
0.26050	2.91988	0.28117
0.26160	2.91076	0.26432
0.26271	2.90122	0.24786
0.26383	2.89127	0.23182
0.26496	2.88093	0.21620
0.26609	2.87021	0.20102
0.26724	2.85913	0.18631
0.26840	2.84771	0.17206
0.26957	2.83597	0.15831
0.27074	2.82394	0.14505
0.27193	2.81162	0.13231
0.27313	2.79905	0.12009
0.27434	2.78624	0.10841
0.27556	2.77322	0.09728
0.27679	2.76001	0.08671
0.27803	2.74664	0.07671
0.27928	2.73313	0.06728
0.28054	2.71950	0.05844
0.28182	2.70578	0.05020
0.28311	2.69200	0.04256
0.28440	2.67820	0.03553
0.28571	2.66440	0.02911
0.28704	2.65063	0.02332
0.28837	2.63693	0.01816
0.28972	2.62334	0.01364
0.29108	2.60990	0.00975
0.29245	2.59666	0.00651
0.29384	2.58367	0.00392
0.29524	2.57100	0.00198
0.29665	2.55874	6.96070E-4
0.29808	2.54700	6.80074E-5
0.29952	2.53609	0
0.30097	2.52599	0
0.30244	2.51644	0
0.30392	2.50733	0
0.30542	2.49862	0
0.30693	2.49024	0
0.30846	2.48217	0
0.31000	2.47438	0
0.31156	2.46684	0
0.31313	2.45955	0
0.31472	2.45247	0
0.31633	2.44560	0
0.31795	2.43893	0
0.31959	2.43244	0
0.32124	2.42612	0
0.32292	2.41997	0
0.32461	2.41397	0
0.32632	2.40811	0
0.32804	2.40240	0
0.32979	2.39683	0
0.33155	2.39138	0
0.33333	2.38606	0
0.33514	2.38085	0
0.33696	2.37576	0
0.33880	2.37077	0
0.34066	2.36589	0
0.34254	2.36112	0
0.34444	2.35644	0
0.34637	2.35185	0
0.34831	2.34735	0
0.35028	2.34295	0
0.35227	2.33862	0
0.35429	2.33438	0
0.35632	2.33022	0
0.35838	2.32614	0
0.36047	2.32213	0
0.36257	2.31820	0
0.36471	2.31433	0
0.36686	2.31054	0
0.36905	2.30681	0
0.37126	2.30314	0
0.37349	2.29954	0
0.37576	2.29600	0
0.37805	2.29252	0
0.38037	2.28910	0
0.38272	2.28573	0
0.38509	2.28242	0
0.38750	2.27917	0
0.38994	2.27597	0
0.39241	2.27281	0
0.39490	2.26971	0
0.39744	2.26666	0
0.40000	2.26366	0
0.40260	2.26070	0
0.40523	2.25779	0
0.40789	2.25493	0
0.41060	2.25211	0
0.41333	2.24933	0
0.41611	2.24660	0
0.41892	2.24390	0
0.42177	2.24125	0
0.42466	2.23863	0
0.42759	2.23606	0
0.43056	2.23352	0
0.43357	2.23102	0
0.43662	2.22856	0
0.43972	2.22613	0
0.44286	2.22374	0
0.44604	2.22139	0
0.44928	2.21906	0
0.45255	2.21678	0
0.45588	2.21452	0
0.45926	2.21230	0
0.46269	2.21010	0
0.46617	2.20794	0
0.46970	2.20581	0
0.47328	2.20372	0
0.47692	2.20165	0
0.48062	2.19960	0
0.48438	2.19759	0
0.48819	2.19561	0
0.49206	2.19365	0
0.49600	2.19172	0
0.50000	2.18982	0
0.50407	2.18795	0
0.50820	2.18610	0
0.51240	2.18428	0
0.51667	2.18248	0
0.52101	2.18071	0
0.52542	2.17896	0
0.52991	2.17724	0
0.53448	2.17554	0
0.53913	2.17386	0
0.54386	2.17221	0
0.54867	2.17058	0
0.55357	2.16897	0
0.55856	2.16739	0
0.56364	2.16583	0
0.56881	2.16429	0
0.57407	2.16277	0
0.57944	2.16127	0
0.58491	2.15979	0
0.59048	2.15834	0
0.59615	2.15690	0
0.60194	2.15549	0
0.60784	2.15409	0
0.61386	2.15272	0
0.62000	2.15136	0
0.62626	2.15003	0
0.63265	2.14871	0
0.63918	2.14741	0
0.64583	2.14613	0
0.65263	2.14487	0
0.65957	2.14363	0
0.66667	2.14240	0
0.67391	2.14120	0
0.68132	2.14001	0
0.68889	2.13884	0
0.69663	2.13768	0
0.70455	2.13655	0
0.71264	2.13543	0
0.72093	2.13432	0
0.72941	2.13324	0
0.73810	2.13216	0
0.74699	2.13111	0
0.75610	2.13007	0
0.76543	2.12905	0
0.77500	2.12805	0
0.78481	2.12706	0
0.79487	2.12608	0
0.80519	2.12512	0
0.81579	2.12418	0
0.82667	2.12325	0
0.83784	2.12234	0
0.84932	2.12144	0
0.86111	2.12055	0
0.87324	2.11968	0
0.88571	2.11883	0
0.89855	2.11799	0
0.91176	2.11716	0
0.92537	2.11635	0
0.93939	2.11556	0
0.95385	2.11477	0
0.96875	2.11400	0
0.98413	2.11325	0
1.00000	2.11251	0
1.01639	2.11178	0
1.03333	2.11106	0
1.05085	2.11036	0
1.06897	2.10967	0
1.08772	2.10900	0
1.10714	2.10834	0
1.12727	2.10769	0
1.14815	2.10706	0
1.16981	2.10643	0
1.19231	2.10582	0
1.21569	2.10523	0
1.24000	2.10464	0
