Material: main / Ta2O5 / Cheikh-amorphous-3.28-16-25
Optical constants. A. Cheikh, J. Gonçalves, C. Labbé, X. Portier, P. Marie, C. Frilay, O. Debieu, S. Duprey, W. Jadwisienczak, D. Ingram, J. Cardin. Tailoring the structural and optical properties of Ta2O5 thin films via radio frequency magnetron sputtering for high-refractive index transparent materials. J. Alloys Compd. 1040, 183273 (2025) (Numerical data kindly provided by Julien Cardin)
Comments: Ta2O5 amorphous thin film. Deposited by radio frequency magnetron sputtering at sputtering power density 3.28 W/cm2 under oxygen flow of 16 sccm. As deposited.
wavelength (um)	n	k
0.20667	2.52527	1.33819
0.20736	2.54014	1.33066
0.20805	2.55502	1.32279
0.20875	2.56989	1.31457
0.20946	2.58474	1.30599
0.21017	2.59957	1.29706
0.21088	2.61437	1.28776
0.21160	2.62912	1.27808
0.21233	2.64381	1.26803
0.21306	2.65843	1.25760
0.21379	2.67296	1.24678
0.21453	2.68740	1.23557
0.21528	2.70173	1.22396
0.21603	2.71593	1.21196
0.21678	2.72999	1.19955
0.21754	2.74390	1.18674
0.21831	2.75763	1.17353
0.21908	2.77118	1.15991
0.21986	2.78452	1.14588
0.22064	2.79763	1.13145
0.22143	2.81051	1.11662
0.22222	2.82313	1.10138
0.22302	2.83547	1.08575
0.22383	2.84752	1.06972
0.22464	2.85925	1.05330
0.22545	2.87066	1.03650
0.22628	2.88171	1.01933
0.22711	2.89240	1.00178
0.22794	2.90270	0.98388
0.22878	2.91259	0.96563
0.22963	2.92206	0.94705
0.23048	2.93109	0.92814
0.23134	2.93965	0.90892
0.23221	2.94775	0.88941
0.23308	2.95535	0.86962
0.23396	2.96244	0.84957
0.23485	2.96900	0.82927
0.23574	2.97503	0.80875
0.23664	2.98051	0.78802
0.23755	2.98542	0.76711
0.23846	2.98975	0.74604
0.23938	2.99350	0.72483
0.24031	2.99665	0.70351
0.24125	2.99920	0.68210
0.24219	3.00114	0.66062
0.24314	3.00246	0.63910
0.24409	3.00315	0.61756
0.24506	3.00323	0.59604
0.24603	3.00267	0.57456
0.24701	3.00150	0.55314
0.24800	2.99969	0.53181
0.24900	2.99726	0.51060
0.25000	2.99422	0.48954
0.25101	2.99056	0.46865
0.25203	2.98630	0.44796
0.25306	2.98143	0.42749
0.25410	2.97598	0.40727
0.25514	2.96995	0.38732
0.25620	2.96336	0.36768
0.25726	2.95621	0.34835
0.25833	2.94853	0.32938
0.25941	2.94032	0.31077
0.26050	2.93161	0.29255
0.26160	2.92241	0.27475
0.26271	2.91274	0.25737
0.26383	2.90261	0.24045
0.26496	2.89206	0.22399
0.26609	2.88110	0.20802
0.26724	2.86975	0.19255
0.26840	2.85803	0.17760
0.26957	2.84597	0.16318
0.27074	2.83360	0.14931
0.27193	2.82092	0.13600
0.27313	2.80798	0.12326
0.27434	2.79479	0.11109
0.27556	2.78139	0.09953
0.27679	2.76779	0.08856
0.27803	2.75403	0.07821
0.27928	2.74013	0.06847
0.28054	2.72612	0.05936
0.28182	2.71203	0.05088
0.28311	2.69789	0.04304
0.28440	2.68374	0.03584
0.28571	2.66961	0.02930
0.28704	2.65552	0.02340
0.28837	2.64153	0.01816
0.28972	2.62766	0.01358
0.29108	2.61397	0.00967
0.29245	2.60049	0.00641
0.29384	2.58730	0.00383
0.29524	2.57444	0.00190
0.29665	2.56202	6.44510E-4
0.29808	2.55015	5.14929E-5
0.29952	2.53916	0
0.30097	2.52897	0
0.30244	2.51933	0
0.30392	2.51015	0
0.30542	2.50135	0
0.30693	2.49291	0
0.30846	2.48478	0
0.31000	2.47694	0
0.31156	2.46936	0
0.31313	2.46202	0
0.31472	2.45490	0
0.31633	2.44800	0
0.31795	2.44130	0
0.31959	2.43478	0
0.32124	2.42844	0
0.32292	2.42227	0
0.32461	2.41625	0
0.32632	2.41039	0
0.32804	2.40467	0
0.32979	2.39909	0
0.33155	2.39363	0
0.33333	2.38831	0
0.33514	2.38310	0
0.33696	2.37801	0
0.33880	2.37303	0
0.34066	2.36815	0
0.34254	2.36338	0
0.34444	2.35871	0
0.34637	2.35413	0
0.34831	2.34965	0
0.35028	2.34525	0
0.35227	2.34094	0
0.35429	2.33672	0
0.35632	2.33257	0
0.35838	2.32851	0
0.36047	2.32452	0
0.36257	2.32060	0
0.36471	2.31675	0
0.36686	2.31298	0
0.36905	2.30927	0
0.37126	2.30563	0
0.37349	2.30205	0
0.37576	2.29853	0
0.37805	2.29507	0
0.38037	2.29167	0
0.38272	2.28833	0
0.38509	2.28505	0
0.38750	2.28182	0
0.38994	2.27864	0
0.39241	2.27552	0
0.39490	2.27244	0
0.39744	2.26942	0
0.40000	2.26644	0
0.40260	2.26352	0
0.40523	2.26063	0
0.40789	2.25780	0
0.41060	2.25500	0
0.41333	2.25225	0
0.41611	2.24955	0
0.41892	2.24688	0
0.42177	2.24426	0
0.42466	2.24167	0
0.42759	2.23913	0
0.43056	2.23662	0
0.43357	2.23415	0
0.43662	2.23172	0
0.43972	2.22932	0
0.44286	2.22696	0
0.44604	2.22463	0
0.44928	2.22234	0
0.45255	2.22008	0
0.45588	2.21785	0
0.45926	2.21566	0
0.46269	2.21349	0
0.46617	2.21136	0
0.46970	2.20926	0
0.47328	2.20719	0
0.47692	2.20515	0
0.48062	2.20314	0
0.48438	2.20116	0
0.48819	2.19920	0
0.49206	2.19727	0
0.49600	2.19537	0
0.50000	2.19350	0
0.50407	2.19165	0
0.50820	2.18983	0
0.51240	2.18804	0
0.51667	2.18627	0
0.52101	2.18453	0
0.52542	2.18281	0
0.52991	2.18111	0
0.53448	2.17944	0
0.53913	2.17779	0
0.54386	2.17616	0
0.54867	2.17456	0
0.55357	2.17298	0
0.55856	2.17143	0
0.56364	2.16989	0
0.56881	2.16838	0
0.57407	2.16688	0
0.57944	2.16541	0
0.58491	2.16396	0
0.59048	2.16253	0
0.59615	2.16112	0
0.60194	2.15973	0
0.60784	2.15836	0
0.61386	2.15701	0
0.62000	2.15568	0
0.62626	2.15437	0
0.63265	2.15308	0
0.63918	2.15180	0
0.64583	2.15055	0
0.65263	2.14931	0
0.65957	2.14809	0
0.66667	2.14689	0
0.67391	2.14570	0
0.68132	2.14454	0
0.68889	2.14339	0
0.69663	2.14226	0
0.70455	2.14114	0
0.71264	2.14004	0
0.72093	2.13896	0
0.72941	2.13790	0
0.73810	2.13685	0
0.74699	2.13581	0
0.75610	2.13480	0
0.76543	2.13380	0
0.77500	2.13281	0
0.78481	2.13184	0
0.79487	2.13089	0
0.80519	2.12995	0
0.81579	2.12902	0
0.82667	2.12811	0
0.83784	2.12722	0
0.84932	2.12634	0
0.86111	2.12547	0
0.87324	2.12462	0
0.88571	2.12378	0
0.89855	2.12296	0
0.91176	2.12215	0
0.92537	2.12136	0
0.93939	2.12058	0
0.95385	2.11981	0
0.96875	2.11906	0
0.98413	2.11832	0
1.00000	2.11759	0
1.01639	2.11688	0
1.03333	2.11618	0
1.05085	2.11550	0
1.06897	2.11482	0
1.08772	2.11416	0
1.10714	2.11352	0
1.12727	2.11288	0
1.14815	2.11226	0
1.16981	2.11165	0
1.19231	2.11106	0
1.21569	2.11047	0
1.24000	2.10990	0
