Material: main / Ta2O5 / Cheikh-crystalline-3.28-8-850
Optical constants. A. Cheikh, J. Gonçalves, C. Labbé, X. Portier, P. Marie, C. Frilay, O. Debieu, S. Duprey, W. Jadwisienczak, D. Ingram, J. Cardin. Tailoring the structural and optical properties of Ta2O5 thin films via radio frequency magnetron sputtering for high-refractive index transparent materials. J. Alloys Compd. 1040, 183273 (2025) (Numerical data kindly provided by Julien Cardin)
Comments: Ta2O5 Crystalline (orthorhombic) thin film. Deposited by radio frequency magnetron sputtering at sputtering power density 3.28 W/cm2 under oxygen flow of 8 sccm. Annealed at 850 °C.
wavelength (um)	n	k
0.20667	2.07778	1.55990
0.20736	2.11336	1.55859
0.20805	2.14920	1.55574
0.20875	2.18520	1.55132
0.20946	2.22125	1.54529
0.21017	2.25724	1.53762
0.21088	2.29305	1.52829
0.21160	2.32858	1.51729
0.21233	2.36370	1.50464
0.21306	2.39829	1.49034
0.21379	2.43222	1.47443
0.21453	2.46538	1.45694
0.21528	2.49765	1.43794
0.21603	2.52892	1.41748
0.21678	2.55909	1.39565
0.21754	2.58805	1.37253
0.21831	2.61572	1.34822
0.21908	2.64203	1.32282
0.21986	2.66692	1.29645
0.22064	2.69032	1.26922
0.22143	2.71220	1.24125
0.22222	2.73254	1.21266
0.22302	2.75131	1.18358
0.22383	2.76852	1.15412
0.22464	2.78418	1.12439
0.22545	2.79830	1.09451
0.22628	2.81091	1.06458
0.22711	2.82206	1.03471
0.22794	2.83178	1.00498
0.22878	2.84013	0.97548
0.22963	2.84716	0.94628
0.23048	2.85294	0.91746
0.23134	2.85753	0.88908
0.23221	2.86099	0.86119
0.23308	2.86338	0.83383
0.23396	2.86479	0.80705
0.23485	2.86526	0.78087
0.23574	2.86488	0.75533
0.23664	2.86369	0.73044
0.23755	2.86177	0.70621
0.23846	2.85917	0.68266
0.23938	2.85596	0.65979
0.24031	2.85218	0.63760
0.24125	2.84788	0.61609
0.24219	2.84312	0.59525
0.24314	2.83794	0.57509
0.24409	2.83239	0.55558
0.24506	2.82650	0.53672
0.24603	2.82032	0.51849
0.24701	2.81387	0.50089
0.24800	2.80719	0.48388
0.24900	2.80032	0.46747
0.25000	2.79327	0.45163
0.25101	2.78608	0.43635
0.25203	2.77876	0.42160
0.25306	2.77134	0.40738
0.25410	2.76384	0.39366
0.25514	2.75627	0.38042
0.25620	2.74866	0.36766
0.25726	2.74101	0.35536
0.25833	2.73335	0.34349
0.25941	2.72567	0.33204
0.26050	2.71800	0.32100
0.26160	2.71034	0.31035
0.26271	2.70271	0.30007
0.26383	2.69510	0.29016
0.26496	2.68753	0.28060
0.26609	2.68001	0.27138
0.26724	2.67253	0.26247
0.26840	2.66511	0.25388
0.26957	2.65775	0.24558
0.27074	2.65045	0.23757
0.27193	2.64322	0.22983
0.27313	2.63605	0.22236
0.27434	2.62896	0.21514
0.27556	2.62194	0.20817
0.27679	2.61500	0.20143
0.27803	2.60813	0.19492
0.27928	2.60134	0.18862
0.28054	2.59463	0.18254
0.28182	2.58800	0.17665
0.28311	2.58145	0.17096
0.28440	2.57498	0.16545
0.28571	2.56860	0.16013
0.28704	2.56229	0.15497
0.28837	2.55607	0.14998
0.28972	2.54992	0.14515
0.29108	2.54386	0.14047
0.29245	2.53787	0.13594
0.29384	2.53197	0.13155
0.29524	2.52615	0.12730
0.29665	2.52040	0.12318
0.29808	2.51473	0.11919
0.29952	2.50914	0.11532
0.30097	2.50362	0.11157
0.30244	2.49818	0.10793
0.30392	2.49282	0.10441
0.30542	2.48753	0.10099
0.30693	2.48231	0.09767
0.30846	2.47716	0.09445
0.31000	2.47208	0.09133
0.31156	2.46707	0.08830
0.31313	2.46214	0.08535
0.31472	2.45726	0.08250
0.31633	2.45246	0.07973
0.31795	2.44772	0.07704
0.31959	2.44305	0.07442
0.32124	2.43844	0.07189
0.32292	2.43389	0.06942
0.32461	2.42941	0.06703
0.32632	2.42498	0.06470
0.32804	2.42062	0.06244
0.32979	2.41631	0.06025
0.33155	2.41207	0.05811
0.33333	2.40788	0.05604
0.33514	2.40374	0.05403
0.33696	2.39966	0.05207
0.33880	2.39564	0.05017
0.34066	2.39167	0.04832
0.34254	2.38775	0.04652
0.34444	2.38388	0.04478
0.34637	2.38006	0.04308
0.34831	2.37630	0.04143
0.35028	2.37258	0.03983
0.35227	2.36891	0.03827
0.35429	2.36529	0.03676
0.35632	2.36172	0.03529
0.35838	2.35819	0.03386
0.36047	2.35470	0.03247
0.36257	2.35126	0.03112
0.36471	2.34787	0.02981
0.36686	2.34452	0.02853
0.36905	2.34121	0.02729
0.37126	2.33794	0.02609
0.37349	2.33471	0.02493
0.37576	2.33152	0.02379
0.37805	2.32838	0.02269
0.38037	2.32527	0.02163
0.38272	2.32220	0.02059
0.38509	2.31917	0.01959
0.38750	2.31617	0.01861
0.38994	2.31322	0.01767
0.39241	2.31029	0.01676
0.39490	2.30741	0.01587
0.39744	2.30456	0.01501
0.40000	2.30174	0.01418
0.40260	2.29896	0.01338
0.40523	2.29621	0.01260
0.40789	2.29350	0.01185
0.41060	2.29082	0.01113
0.41333	2.28817	0.01043
0.41611	2.28555	0.00976
0.41892	2.28296	0.00911
0.42177	2.28041	0.00848
0.42466	2.27789	0.00788
0.42759	2.27539	0.00730
0.43056	2.27293	0.00675
0.43357	2.27050	0.00622
0.43662	2.26810	0.00571
0.43972	2.26572	0.00522
0.44286	2.26338	0.00476
0.44604	2.26106	0.00432
0.44928	2.25878	0.00390
0.45255	2.25652	0.00350
0.45588	2.25429	0.00313
0.45926	2.25209	0.00277
0.46269	2.24992	0.00244
0.46617	2.24778	0.00213
0.46970	2.24567	0.00184
0.47328	2.24358	0.00157
0.47692	2.24152	0.00132
0.48062	2.23949	0.00110
0.48438	2.23750	8.91701E-4
0.48819	2.23553	7.07459E-4
0.49206	2.23359	5.44364E-4
0.49600	2.23168	4.02453E-4
0.50000	2.22980	2.81782E-4
0.50407	2.22796	1.82420E-4
0.50820	2.22615	1.04457E-4
0.51240	2.22437	4.79985E-5
0.51667	2.22263	1.31670E-5
0.52101	2.22093	1.03301E-7
0.52542	2.21929	0
0.52991	2.21769	0
0.53448	2.21613	0
0.53913	2.21461	0
0.54386	2.21311	0
0.54867	2.21165	0
0.55357	2.21022	0
0.55856	2.20881	0
0.56364	2.20743	0
0.56881	2.20608	0
0.57407	2.20476	0
0.57944	2.20345	0
0.58491	2.20218	0
0.59048	2.20092	0
0.59615	2.19969	0
0.60194	2.19848	0
0.60784	2.19729	0
0.61386	2.19613	0
0.62000	2.19498	0
0.62626	2.19386	0
0.63265	2.19275	0
0.63918	2.19166	0
0.64583	2.19059	0
0.65263	2.18954	0
0.65957	2.18851	0
0.66667	2.18750	0
0.67391	2.18650	0
0.68132	2.18552	0
0.68889	2.18456	0
0.69663	2.18361	0
0.70455	2.18268	0
0.71264	2.18177	0
0.72093	2.18087	0
0.72941	2.17999	0
0.73810	2.17912	0
0.74699	2.17827	0
0.75610	2.17743	0
0.76543	2.17661	0
0.77500	2.17580	0
0.78481	2.17501	0
0.79487	2.17423	0
0.80519	2.17346	0
0.81579	2.17271	0
0.82667	2.17197	0
0.83784	2.17124	0
0.84932	2.17053	0
0.86111	2.16983	0
0.87324	2.16914	0
0.88571	2.16846	0
0.89855	2.16780	0
0.91176	2.16715	0
0.92537	2.16651	0
0.93939	2.16589	0
0.95385	2.16527	0
0.96875	2.16467	0
0.98413	2.16408	0
1.00000	2.16350	0
1.01639	2.16293	0
1.03333	2.16237	0
1.05085	2.16183	0
1.06897	2.16129	0
1.08772	2.16077	0
1.10714	2.16026	0
1.12727	2.15976	0
1.14815	2.15926	0
1.16981	2.15878	0
1.19231	2.15831	0
1.21569	2.15785	0
1.24000	2.15740	0
