Material: main / Ta2O5 / Cheikh-amorphous-3.28-12-25
Optical constants. A. Cheikh, J. Gonçalves, C. Labbé, X. Portier, P. Marie, C. Frilay, O. Debieu, S. Duprey, W. Jadwisienczak, D. Ingram, J. Cardin. Tailoring the structural and optical properties of Ta2O5 thin films via radio frequency magnetron sputtering for high-refractive index transparent materials. J. Alloys Compd. 1040, 183273 (2025) (Numerical data kindly provided by Julien Cardin)
Comments: Ta2O5 amorphous thin film. Deposited by radio frequency magnetron sputtering at sputtering power density 3.28 W/cm2 under oxygen flow of 12 sccm. As deposited.
wavelength (um)	n	k
0.20667	2.35810	1.44570
0.20736	2.37851	1.44106
0.20805	2.39906	1.43590
0.20875	2.41973	1.43017
0.20946	2.44050	1.42388
0.21017	2.46136	1.41699
0.21088	2.48227	1.40950
0.21160	2.50323	1.40139
0.21233	2.52420	1.39265
0.21306	2.54517	1.38326
0.21379	2.56610	1.37320
0.21453	2.58696	1.36248
0.21528	2.60773	1.35107
0.21603	2.62837	1.33897
0.21678	2.64885	1.32617
0.21754	2.66913	1.31267
0.21831	2.68919	1.29846
0.21908	2.70899	1.28354
0.21986	2.72848	1.26792
0.22064	2.74763	1.25159
0.22143	2.76641	1.23457
0.22222	2.78477	1.21686
0.22302	2.80267	1.19848
0.22383	2.82008	1.17944
0.22464	2.83696	1.15975
0.22545	2.85327	1.13944
0.22628	2.86897	1.11853
0.22711	2.88403	1.09704
0.22794	2.89842	1.07501
0.22878	2.91210	1.05247
0.22963	2.92504	1.02944
0.23048	2.93721	1.00597
0.23134	2.94860	0.98210
0.23221	2.95917	0.95785
0.23308	2.96890	0.93329
0.23396	2.97779	0.90844
0.23485	2.98580	0.88336
0.23574	2.99294	0.85809
0.23664	2.99920	0.83267
0.23755	3.00456	0.80715
0.23846	3.00904	0.78159
0.23938	3.01263	0.75601
0.24031	3.01533	0.73048
0.24125	3.01716	0.70503
0.24219	3.01813	0.67972
0.24314	3.01825	0.65457
0.24409	3.01753	0.62963
0.24506	3.01601	0.60494
0.24603	3.01369	0.58054
0.24701	3.01060	0.55647
0.24800	3.00677	0.53274
0.24900	3.00222	0.50941
0.25000	2.99698	0.48649
0.25101	2.99109	0.46400
0.25203	2.98457	0.44198
0.25306	2.97744	0.42045
0.25410	2.96976	0.39942
0.25514	2.96153	0.37891
0.25620	2.95280	0.35894
0.25726	2.94361	0.33951
0.25833	2.93397	0.32065
0.25941	2.92392	0.30234
0.26050	2.91349	0.28462
0.26160	2.90272	0.26747
0.26271	2.89162	0.25090
0.26383	2.88024	0.23491
0.26496	2.86859	0.21951
0.26609	2.85671	0.20469
0.26724	2.84462	0.19045
0.26840	2.83235	0.17679
0.26957	2.81993	0.16370
0.27074	2.80736	0.15118
0.27193	2.79469	0.13922
0.27313	2.78193	0.12782
0.27434	2.76909	0.11697
0.27556	2.75621	0.10666
0.27679	2.74331	0.09689
0.27803	2.73039	0.08764
0.27928	2.71748	0.07891
0.28054	2.70460	0.07070
0.28182	2.69176	0.06298
0.28311	2.67897	0.05576
0.28440	2.66627	0.04902
0.28571	2.65365	0.04275
0.28704	2.64114	0.03696
0.28837	2.62874	0.03161
0.28972	2.61648	0.02672
0.29108	2.60437	0.02227
0.29245	2.59243	0.01825
0.29384	2.58066	0.01465
0.29524	2.56909	0.01147
0.29665	2.55772	0.00870
0.29808	2.54659	0.00632
0.29952	2.53570	0.00433
0.30097	2.52508	0.00273
0.30244	2.51476	0.00150
0.30392	2.50476	6.44139E-4
0.30542	2.49514	1.45893E-4
0.30693	2.48599	0
0.30846	2.47743	0
0.31000	2.46931	0
0.31156	2.46154	0
0.31313	2.45407	0
0.31472	2.44687	0
0.31633	2.43992	0
0.31795	2.43320	0
0.31959	2.42668	0
0.32124	2.42036	0
0.32292	2.41423	0
0.32461	2.40826	0
0.32632	2.40246	0
0.32804	2.39681	0
0.32979	2.39131	0
0.33155	2.38595	0
0.33333	2.38071	0
0.33514	2.37561	0
0.33696	2.37063	0
0.33880	2.36576	0
0.34066	2.36100	0
0.34254	2.35635	0
0.34444	2.35180	0
0.34637	2.34735	0
0.34831	2.34299	0
0.35028	2.33873	0
0.35227	2.33455	0
0.35429	2.33046	0
0.35632	2.32646	0
0.35838	2.32253	0
0.36047	2.31868	0
0.36257	2.31490	0
0.36471	2.31120	0
0.36686	2.30756	0
0.36905	2.30400	0
0.37126	2.30050	0
0.37349	2.29707	0
0.37576	2.29369	0
0.37805	2.29038	0
0.38037	2.28713	0
0.38272	2.28394	0
0.38509	2.28080	0
0.38750	2.27771	0
0.38994	2.27468	0
0.39241	2.27170	0
0.39490	2.26878	0
0.39744	2.26590	0
0.40000	2.26307	0
0.40260	2.26028	0
0.40523	2.25754	0
0.40789	2.25485	0
0.41060	2.25220	0
0.41333	2.24959	0
0.41611	2.24703	0
0.41892	2.24451	0
0.42177	2.24202	0
0.42466	2.23958	0
0.42759	2.23717	0
0.43056	2.23481	0
0.43357	2.23247	0
0.43662	2.23018	0
0.43972	2.22792	0
0.44286	2.22569	0
0.44604	2.22350	0
0.44928	2.22135	0
0.45255	2.21922	0
0.45588	2.21713	0
0.45926	2.21507	0
0.46269	2.21304	0
0.46617	2.21104	0
0.46970	2.20907	0
0.47328	2.20712	0
0.47692	2.20521	0
0.48062	2.20333	0
0.48438	2.20147	0
0.48819	2.19964	0
0.49206	2.19784	0
0.49600	2.19607	0
0.50000	2.19432	0
0.50407	2.19259	0
0.50820	2.19089	0
0.51240	2.18922	0
0.51667	2.18757	0
0.52101	2.18594	0
0.52542	2.18434	0
0.52991	2.18276	0
0.53448	2.18121	0
0.53913	2.17967	0
0.54386	2.17816	0
0.54867	2.17667	0
0.55357	2.17520	0
0.55856	2.17376	0
0.56364	2.17233	0
0.56881	2.17093	0
0.57407	2.16954	0
0.57944	2.16818	0
0.58491	2.16683	0
0.59048	2.16551	0
0.59615	2.16420	0
0.60194	2.16291	0
0.60784	2.16165	0
0.61386	2.16040	0
0.62000	2.15916	0
0.62626	2.15795	0
0.63265	2.15676	0
0.63918	2.15558	0
0.64583	2.15442	0
0.65263	2.15328	0
0.65957	2.15215	0
0.66667	2.15104	0
0.67391	2.14995	0
0.68132	2.14887	0
0.68889	2.14781	0
0.69663	2.14677	0
0.70455	2.14574	0
0.71264	2.14473	0
0.72093	2.14373	0
0.72941	2.14275	0
0.73810	2.14179	0
0.74699	2.14084	0
0.75610	2.13990	0
0.76543	2.13898	0
0.77500	2.13807	0
0.78481	2.13718	0
0.79487	2.13631	0
0.80519	2.13544	0
0.81579	2.13459	0
0.82667	2.13376	0
0.83784	2.13294	0
0.84932	2.13213	0
0.86111	2.13134	0
0.87324	2.13055	0
0.88571	2.12979	0
0.89855	2.12903	0
0.91176	2.12829	0
0.92537	2.12756	0
0.93939	2.12685	0
0.95385	2.12615	0
0.96875	2.12546	0
0.98413	2.12478	0
1.00000	2.12412	0
1.01639	2.12346	0
1.03333	2.12282	0
1.05085	2.12220	0
1.06897	2.12158	0
1.08772	2.12098	0
1.10714	2.12038	0
1.12727	2.11980	0
1.14815	2.11924	0
1.16981	2.11868	0
1.19231	2.11814	0
1.21569	2.11760	0
1.24000	2.11708	0
