Material: main / Ta2O5 / Cheikh-amorphous-3.28-8-25
Optical constants. A. Cheikh, J. Gonçalves, C. Labbé, X. Portier, P. Marie, C. Frilay, O. Debieu, S. Duprey, W. Jadwisienczak, D. Ingram, J. Cardin. Tailoring the structural and optical properties of Ta2O5 thin films via radio frequency magnetron sputtering for high-refractive index transparent materials. J. Alloys Compd. 1040, 183273 (2025) (Numerical data kindly provided by Julien Cardin)
Comments: Ta2O5 amorphous thin film. Deposited by radio frequency magnetron sputtering at sputtering power density 3.28 W/cm2 under oxygen flow of 8 sccm. As deposited.
wavelength (um)	n	k
0.20667	2.54491	1.34456
0.20736	2.55996	1.33655
0.20805	2.57500	1.32818
0.20875	2.59002	1.31945
0.20946	2.60501	1.31036
0.21017	2.61996	1.30089
0.21088	2.63485	1.29105
0.21160	2.64968	1.28082
0.21233	2.66443	1.27021
0.21306	2.67909	1.25921
0.21379	2.69364	1.24781
0.21453	2.70807	1.23601
0.21528	2.72236	1.22381
0.21603	2.73651	1.21121
0.21678	2.75049	1.19821
0.21754	2.76428	1.18480
0.21831	2.77788	1.17098
0.21908	2.79126	1.15676
0.21986	2.80440	1.14213
0.22064	2.81730	1.12711
0.22143	2.82993	1.11168
0.22222	2.84227	1.09586
0.22302	2.85431	1.07966
0.22383	2.86602	1.06306
0.22464	2.87739	1.04610
0.22545	2.88840	1.02876
0.22628	2.89904	1.01106
0.22711	2.90928	0.99302
0.22794	2.91910	0.97464
0.22878	2.92850	0.95593
0.22963	2.93744	0.93691
0.23048	2.94592	0.91759
0.23134	2.95392	0.89799
0.23221	2.96142	0.87812
0.23308	2.96841	0.85801
0.23396	2.97488	0.83766
0.23485	2.98081	0.81711
0.23574	2.98618	0.79636
0.23664	2.99099	0.77545
0.23755	2.99523	0.75439
0.23846	2.99889	0.73320
0.23938	3.00195	0.71192
0.24031	3.00442	0.69056
0.24125	3.00629	0.66915
0.24219	3.00755	0.64771
0.24314	3.00820	0.62626
0.24409	3.00823	0.60484
0.24506	3.00766	0.58347
0.24603	3.00647	0.56218
0.24701	3.00467	0.54098
0.24800	3.00227	0.51991
0.24900	2.99926	0.49900
0.25000	2.99566	0.47825
0.25101	2.99148	0.45771
0.25203	2.98671	0.43740
0.25306	2.98138	0.41734
0.25410	2.97549	0.39754
0.25514	2.96905	0.37805
0.25620	2.96208	0.35887
0.25726	2.95460	0.34003
0.25833	2.94661	0.32155
0.25941	2.93814	0.30345
0.26050	2.92920	0.28575
0.26160	2.91981	0.26846
0.26271	2.90998	0.25161
0.26383	2.89975	0.23520
0.26496	2.88912	0.21927
0.26609	2.87811	0.20381
0.26724	2.86676	0.18885
0.26840	2.85507	0.17439
0.26957	2.84308	0.16046
0.27074	2.83080	0.14705
0.27193	2.81826	0.13418
0.27313	2.80548	0.12187
0.27434	2.79248	0.11011
0.27556	2.77929	0.09892
0.27679	2.76593	0.08830
0.27803	2.75243	0.07827
0.27928	2.73882	0.06882
0.28054	2.72511	0.05997
0.28182	2.71134	0.05171
0.28311	2.69753	0.04405
0.28440	2.68371	0.03700
0.28571	2.66991	0.03056
0.28704	2.65616	0.02473
0.28837	2.64250	0.01951
0.28972	2.62896	0.01491
0.29108	2.61557	0.01093
0.29245	2.60239	0.00756
0.29384	2.58944	0.00481
0.29524	2.57680	0.00269
0.29665	2.56453	0.00117
0.29808	2.55271	2.79841E-4
0.29952	2.54152	0
0.30097	2.53123	0
0.30244	2.52155	0
0.30392	2.51236	0
0.30542	2.50356	0
0.30693	2.49513	0
0.30846	2.48700	0
0.31000	2.47917	0
0.31156	2.47160	0
0.31313	2.46428	0
0.31472	2.45718	0
0.31633	2.45029	0
0.31795	2.44360	0
0.31959	2.43710	0
0.32124	2.43077	0
0.32292	2.42461	0
0.32461	2.41861	0
0.32632	2.41276	0
0.32804	2.40705	0
0.32979	2.40148	0
0.33155	2.39604	0
0.33333	2.39072	0
0.33514	2.38552	0
0.33696	2.38044	0
0.33880	2.37547	0
0.34066	2.37060	0
0.34254	2.36584	0
0.34444	2.36118	0
0.34637	2.35661	0
0.34831	2.35213	0
0.35028	2.34774	0
0.35227	2.34344	0
0.35429	2.33922	0
0.35632	2.33508	0
0.35838	2.33102	0
0.36047	2.32703	0
0.36257	2.32312	0
0.36471	2.31928	0
0.36686	2.31551	0
0.36905	2.31180	0
0.37126	2.30816	0
0.37349	2.30459	0
0.37576	2.30107	0
0.37805	2.29762	0
0.38037	2.29422	0
0.38272	2.29089	0
0.38509	2.28760	0
0.38750	2.28438	0
0.38994	2.28120	0
0.39241	2.27808	0
0.39490	2.27501	0
0.39744	2.27198	0
0.40000	2.26901	0
0.40260	2.26608	0
0.40523	2.26320	0
0.40789	2.26037	0
0.41060	2.25757	0
0.41333	2.25483	0
0.41611	2.25212	0
0.41892	2.24945	0
0.42177	2.24683	0
0.42466	2.24425	0
0.42759	2.24170	0
0.43056	2.23919	0
0.43357	2.23672	0
0.43662	2.23429	0
0.43972	2.23189	0
0.44286	2.22953	0
0.44604	2.22720	0
0.44928	2.22491	0
0.45255	2.22265	0
0.45588	2.22042	0
0.45926	2.21823	0
0.46269	2.21607	0
0.46617	2.21393	0
0.46970	2.21183	0
0.47328	2.20976	0
0.47692	2.20772	0
0.48062	2.20571	0
0.48438	2.20373	0
0.48819	2.20177	0
0.49206	2.19984	0
0.49600	2.19794	0
0.50000	2.19607	0
0.50407	2.19422	0
0.50820	2.19240	0
0.51240	2.19060	0
0.51667	2.18883	0
0.52101	2.18709	0
0.52542	2.18537	0
0.52991	2.18367	0
0.53448	2.18200	0
0.53913	2.18035	0
0.54386	2.17872	0
0.54867	2.17712	0
0.55357	2.17554	0
0.55856	2.17398	0
0.56364	2.17244	0
0.56881	2.17093	0
0.57407	2.16943	0
0.57944	2.16796	0
0.58491	2.16651	0
0.59048	2.16508	0
0.59615	2.16367	0
0.60194	2.16228	0
0.60784	2.16091	0
0.61386	2.15956	0
0.62000	2.15822	0
0.62626	2.15691	0
0.63265	2.15562	0
0.63918	2.15434	0
0.64583	2.15309	0
0.65263	2.15185	0
0.65957	2.15063	0
0.66667	2.14942	0
0.67391	2.14824	0
0.68132	2.14707	0
0.68889	2.14592	0
0.69663	2.14479	0
0.70455	2.14367	0
0.71264	2.14257	0
0.72093	2.14149	0
0.72941	2.14042	0
0.73810	2.13937	0
0.74699	2.13834	0
0.75610	2.13732	0
0.76543	2.13632	0
0.77500	2.13533	0
0.78481	2.13436	0
0.79487	2.13340	0
0.80519	2.13246	0
0.81579	2.13154	0
0.82667	2.13063	0
0.83784	2.12973	0
0.84932	2.12885	0
0.86111	2.12798	0
0.87324	2.12713	0
0.88571	2.12629	0
0.89855	2.12547	0
0.91176	2.12466	0
0.92537	2.12387	0
0.93939	2.12308	0
0.95385	2.12232	0
0.96875	2.12156	0
0.98413	2.12082	0
1.00000	2.12010	0
1.01639	2.11938	0
1.03333	2.11868	0
1.05085	2.11800	0
1.06897	2.11732	0
1.08772	2.11666	0
1.10714	2.11601	0
1.12727	2.11538	0
1.14815	2.11476	0
1.16981	2.11415	0
1.19231	2.11355	0
1.21569	2.11297	0
1.24000	2.11239	0
