Material: main / Ta2O5 / Cheikh-amorphous-3.28-8-550
Optical constants. A. Cheikh, J. Gonçalves, C. Labbé, X. Portier, P. Marie, C. Frilay, O. Debieu, S. Duprey, W. Jadwisienczak, D. Ingram, J. Cardin. Tailoring the structural and optical properties of Ta2O5 thin films via radio frequency magnetron sputtering for high-refractive index transparent materials. J. Alloys Compd. 1040, 183273 (2025) (Numerical data kindly provided by Julien Cardin)
Comments: Ta2O5 amorphous thin film. Deposited by radio frequency magnetron sputtering at sputtering power density 3.28 W/cm2 under oxygen flow of 8 sccm. Annealed at 550 °C.
wavelength (um)	n	k
0.20667	2.46422	1.38429
0.20736	2.48140	1.37734
0.20805	2.49861	1.36997
0.20875	2.51586	1.36215
0.20946	2.53312	1.35389
0.21017	2.55039	1.34518
0.21088	2.56764	1.33600
0.21160	2.58486	1.32634
0.21233	2.60203	1.31621
0.21306	2.61914	1.30558
0.21379	2.63616	1.29446
0.21453	2.65309	1.28283
0.21528	2.66989	1.27070
0.21603	2.68654	1.25805
0.21678	2.70304	1.24488
0.21754	2.71934	1.23119
0.21831	2.73543	1.21699
0.21908	2.75129	1.20226
0.21986	2.76689	1.18701
0.22064	2.78220	1.17124
0.22143	2.79721	1.15495
0.22222	2.81188	1.13816
0.22302	2.82618	1.12086
0.22383	2.84011	1.10307
0.22464	2.85361	1.08479
0.22545	2.86668	1.06604
0.22628	2.87928	1.04682
0.22711	2.89140	1.02717
0.22794	2.90300	1.00708
0.22878	2.91406	0.98658
0.22963	2.92455	0.96569
0.23048	2.93447	0.94444
0.23134	2.94377	0.92284
0.23221	2.95245	0.90092
0.23308	2.96049	0.87870
0.23396	2.96786	0.85622
0.23485	2.97455	0.83351
0.23574	2.98055	0.81058
0.23664	2.98585	0.78748
0.23755	2.99043	0.76424
0.23846	2.99429	0.74089
0.23938	2.99741	0.71746
0.24031	2.99981	0.69399
0.24125	3.00146	0.67050
0.24219	3.00238	0.64704
0.24314	3.00256	0.62365
0.24409	3.00201	0.60034
0.24506	3.00073	0.57716
0.24603	2.99873	0.55415
0.24701	2.99602	0.53132
0.24800	2.99262	0.50872
0.24900	2.98853	0.48638
0.25000	2.98378	0.46432
0.25101	2.97837	0.44257
0.25203	2.97233	0.42117
0.25306	2.96567	0.40013
0.25410	2.95841	0.37949
0.25514	2.95059	0.35926
0.25620	2.94221	0.33947
0.25726	2.93331	0.32014
0.25833	2.92390	0.30129
0.25941	2.91402	0.28293
0.26050	2.90369	0.26509
0.26160	2.89292	0.24777
0.26271	2.88176	0.23099
0.26383	2.87023	0.21477
0.26496	2.85835	0.19910
0.26609	2.84614	0.18401
0.26724	2.83365	0.16950
0.26840	2.82089	0.15557
0.26957	2.80788	0.14223
0.27074	2.79467	0.12950
0.27193	2.78126	0.11736
0.27313	2.76770	0.10583
0.27434	2.75400	0.09490
0.27556	2.74019	0.08458
0.27679	2.72630	0.07486
0.27803	2.71236	0.06575
0.27928	2.69838	0.05725
0.28054	2.68440	0.04935
0.28182	2.67044	0.04205
0.28311	2.65652	0.03535
0.28440	2.64268	0.02924
0.28571	2.62895	0.02373
0.28704	2.61535	0.01880
0.28837	2.60190	0.01446
0.28972	2.58865	0.01070
0.29108	2.57563	0.00751
0.29245	2.56288	0.00490
0.29384	2.55044	0.00284
0.29524	2.53836	0.00135
0.29665	2.52672	4.08307E-4
0.29808	2.51562	1.40695E-5
0.29952	2.50533	0
0.30097	2.49570	0
0.30244	2.48655	0
0.30392	2.47780	0
0.30542	2.46941	0
0.30693	2.46134	0
0.30846	2.45355	0
0.31000	2.44603	0
0.31156	2.43875	0
0.31313	2.43169	0
0.31472	2.42485	0
0.31633	2.41821	0
0.31795	2.41175	0
0.31959	2.40547	0
0.32124	2.39936	0
0.32292	2.39340	0
0.32461	2.38760	0
0.32632	2.38193	0
0.32804	2.37641	0
0.32979	2.37102	0
0.33155	2.36575	0
0.33333	2.36060	0
0.33514	2.35556	0
0.33696	2.35064	0
0.33880	2.34582	0
0.34066	2.34111	0
0.34254	2.33649	0
0.34444	2.33197	0
0.34637	2.32755	0
0.34831	2.32321	0
0.35028	2.31896	0
0.35227	2.31479	0
0.35429	2.31070	0
0.35632	2.30668	0
0.35838	2.30275	0
0.36047	2.29889	0
0.36257	2.29510	0
0.36471	2.29137	0
0.36686	2.28772	0
0.36905	2.28413	0
0.37126	2.28060	0
0.37349	2.27714	0
0.37576	2.27374	0
0.37805	2.27039	0
0.38037	2.26710	0
0.38272	2.26387	0
0.38509	2.26069	0
0.38750	2.25757	0
0.38994	2.25450	0
0.39241	2.25147	0
0.39490	2.24850	0
0.39744	2.24557	0
0.40000	2.24270	0
0.40260	2.23986	0
0.40523	2.23708	0
0.40789	2.23433	0
0.41060	2.23163	0
0.41333	2.22897	0
0.41611	2.22636	0
0.41892	2.22378	0
0.42177	2.22124	0
0.42466	2.21874	0
0.42759	2.21628	0
0.43056	2.21386	0
0.43357	2.21147	0
0.43662	2.20912	0
0.43972	2.20680	0
0.44286	2.20452	0
0.44604	2.20227	0
0.44928	2.20006	0
0.45255	2.19788	0
0.45588	2.19573	0
0.45926	2.19361	0
0.46269	2.19152	0
0.46617	2.18946	0
0.46970	2.18743	0
0.47328	2.18543	0
0.47692	2.18346	0
0.48062	2.18152	0
0.48438	2.17961	0
0.48819	2.17772	0
0.49206	2.17586	0
0.49600	2.17403	0
0.50000	2.17222	0
0.50407	2.17044	0
0.50820	2.16868	0
0.51240	2.16695	0
0.51667	2.16525	0
0.52101	2.16356	0
0.52542	2.16190	0
0.52991	2.16027	0
0.53448	2.15866	0
0.53913	2.15707	0
0.54386	2.15550	0
0.54867	2.15396	0
0.55357	2.15243	0
0.55856	2.15093	0
0.56364	2.14945	0
0.56881	2.14799	0
0.57407	2.14656	0
0.57944	2.14514	0
0.58491	2.14374	0
0.59048	2.14236	0
0.59615	2.14101	0
0.60194	2.13967	0
0.60784	2.13835	0
0.61386	2.13705	0
0.62000	2.13577	0
0.62626	2.13450	0
0.63265	2.13326	0
0.63918	2.13203	0
0.64583	2.13082	0
0.65263	2.12963	0
0.65957	2.12846	0
0.66667	2.12730	0
0.67391	2.12616	0
0.68132	2.12504	0
0.68889	2.12393	0
0.69663	2.12284	0
0.70455	2.12177	0
0.71264	2.12071	0
0.72093	2.11967	0
0.72941	2.11865	0
0.73810	2.11764	0
0.74699	2.11665	0
0.75610	2.11567	0
0.76543	2.11470	0
0.77500	2.11376	0
0.78481	2.11282	0
0.79487	2.11191	0
0.80519	2.11100	0
0.81579	2.11011	0
0.82667	2.10924	0
0.83784	2.10838	0
0.84932	2.10753	0
0.86111	2.10670	0
0.87324	2.10588	0
0.88571	2.10508	0
0.89855	2.10429	0
0.91176	2.10351	0
0.92537	2.10275	0
0.93939	2.10200	0
0.95385	2.10126	0
0.96875	2.10054	0
0.98413	2.09983	0
1.00000	2.09913	0
1.01639	2.09845	0
1.03333	2.09777	0
1.05085	2.09711	0
1.06897	2.09647	0
1.08772	2.09583	0
1.10714	2.09521	0
1.12727	2.09460	0
1.14815	2.09401	0
1.16981	2.09342	0
1.19231	2.09285	0
1.21569	2.09229	0
1.24000	2.09174	0
