Material: main / Ta2O5 / Cheikh-amorphous-5.48-12-25
Optical constants. A. Cheikh, J. Gonçalves, C. Labbé, X. Portier, P. Marie, C. Frilay, O. Debieu, S. Duprey, W. Jadwisienczak, D. Ingram, J. Cardin. Tailoring the structural and optical properties of Ta2O5 thin films via radio frequency magnetron sputtering for high-refractive index transparent materials. J. Alloys Compd. 1040, 183273 (2025) (Numerical data kindly provided by Julien Cardin)
Comments: Ta2O5 amorphous thin film. Deposited by radio frequency magnetron sputtering at sputtering power density 5.48 W/cm2 under oxygen flow of 12 sccm. As deposited.
wavelength (um)	n	k
0.20667	2.59354	1.40543
0.20736	2.61033	1.39529
0.20805	2.62705	1.38470
0.20875	2.64367	1.37367
0.20946	2.66017	1.36218
0.21017	2.67654	1.35024
0.21088	2.69277	1.33784
0.21160	2.70882	1.32498
0.21233	2.72469	1.31167
0.21306	2.74035	1.29790
0.21379	2.75579	1.28367
0.21453	2.77099	1.26898
0.21528	2.78592	1.25385
0.21603	2.80057	1.23826
0.21678	2.81491	1.22224
0.21754	2.82893	1.20578
0.21831	2.84260	1.18890
0.21908	2.85591	1.17159
0.21986	2.86883	1.15388
0.22064	2.88135	1.13577
0.22143	2.89344	1.11728
0.22222	2.90509	1.09842
0.22302	2.91628	1.07920
0.22383	2.92699	1.05965
0.22464	2.93721	1.03977
0.22545	2.94691	1.01959
0.22628	2.95609	0.99912
0.22711	2.96473	0.97839
0.22794	2.97281	0.95742
0.22878	2.98032	0.93623
0.22963	2.98726	0.91483
0.23048	2.99361	0.89327
0.23134	2.99937	0.87155
0.23221	3.00452	0.84970
0.23308	3.00907	0.82776
0.23396	3.01300	0.80573
0.23485	3.01632	0.78366
0.23574	3.01902	0.76156
0.23664	3.02111	0.73946
0.23755	3.02258	0.71739
0.23846	3.02343	0.69536
0.23938	3.02368	0.67342
0.24031	3.02332	0.65157
0.24125	3.02237	0.62984
0.24219	3.02083	0.60827
0.24314	3.01870	0.58686
0.24409	3.01601	0.56565
0.24506	3.01276	0.54465
0.24603	3.00896	0.52389
0.24701	3.00462	0.50339
0.24800	2.99977	0.48315
0.24900	2.99441	0.46322
0.25000	2.98856	0.44359
0.25101	2.98223	0.42428
0.25203	2.97545	0.40532
0.25306	2.96822	0.38671
0.25410	2.96057	0.36848
0.25514	2.95252	0.35062
0.25620	2.94407	0.33316
0.25726	2.93526	0.31610
0.25833	2.92609	0.29945
0.25941	2.91659	0.28322
0.26050	2.90678	0.26742
0.26160	2.89666	0.25206
0.26271	2.88627	0.23714
0.26383	2.87562	0.22266
0.26496	2.86473	0.20864
0.26609	2.85361	0.19507
0.26724	2.84228	0.18196
0.26840	2.83077	0.16931
0.26957	2.81908	0.15713
0.27074	2.80724	0.14540
0.27193	2.79526	0.13415
0.27313	2.78316	0.12336
0.27434	2.77096	0.11303
0.27556	2.75867	0.10317
0.27679	2.74631	0.09377
0.27803	2.73390	0.08484
0.27928	2.72144	0.07637
0.28054	2.70896	0.06836
0.28182	2.69648	0.06080
0.28311	2.68400	0.05371
0.28440	2.67155	0.04706
0.28571	2.65914	0.04087
0.28704	2.64678	0.03513
0.28837	2.63450	0.02983
0.28972	2.62230	0.02498
0.29108	2.61022	0.02057
0.29245	2.59825	0.01659
0.29384	2.58644	0.01305
0.29524	2.57478	0.00994
0.29665	2.56332	0.00726
0.29808	2.55206	0.00501
0.29952	2.54105	0.00317
0.30097	2.53031	0.00176
0.30244	2.51988	7.63417E-4
0.30392	2.50982	1.77837E-4
0.30542	2.50025	0
0.30693	2.49132	0
0.30846	2.48285	0
0.31000	2.47475	0
0.31156	2.46697	0
0.31313	2.45946	0
0.31472	2.45221	0
0.31633	2.44519	0
0.31795	2.43838	0
0.31959	2.43178	0
0.32124	2.42536	0
0.32292	2.41911	0
0.32461	2.41303	0
0.32632	2.40711	0
0.32804	2.40134	0
0.32979	2.39571	0
0.33155	2.39021	0
0.33333	2.38484	0
0.33514	2.37959	0
0.33696	2.37446	0
0.33880	2.36944	0
0.34066	2.36454	0
0.34254	2.35973	0
0.34444	2.35503	0
0.34637	2.35042	0
0.34831	2.34591	0
0.35028	2.34148	0
0.35227	2.33715	0
0.35429	2.33289	0
0.35632	2.32872	0
0.35838	2.32463	0
0.36047	2.32061	0
0.36257	2.31667	0
0.36471	2.31280	0
0.36686	2.30900	0
0.36905	2.30527	0
0.37126	2.30160	0
0.37349	2.29800	0
0.37576	2.29446	0
0.37805	2.29098	0
0.38037	2.28756	0
0.38272	2.28420	0
0.38509	2.28089	0
0.38750	2.27764	0
0.38994	2.27445	0
0.39241	2.27130	0
0.39490	2.26821	0
0.39744	2.26516	0
0.40000	2.26217	0
0.40260	2.25922	0
0.40523	2.25632	0
0.40789	2.25346	0
0.41060	2.25065	0
0.41333	2.24788	0
0.41611	2.24515	0
0.41892	2.24247	0
0.42177	2.23983	0
0.42466	2.23722	0
0.42759	2.23466	0
0.43056	2.23213	0
0.43357	2.22965	0
0.43662	2.22720	0
0.43972	2.22478	0
0.44286	2.22240	0
0.44604	2.22006	0
0.44928	2.21775	0
0.45255	2.21547	0
0.45588	2.21323	0
0.45926	2.21102	0
0.46269	2.20884	0
0.46617	2.20670	0
0.46970	2.20458	0
0.47328	2.20250	0
0.47692	2.20044	0
0.48062	2.19841	0
0.48438	2.19641	0
0.48819	2.19445	0
0.49206	2.19250	0
0.49600	2.19059	0
0.50000	2.18870	0
0.50407	2.18684	0
0.50820	2.18501	0
0.51240	2.18320	0
0.51667	2.18142	0
0.52101	2.17966	0
0.52542	2.17793	0
0.52991	2.17622	0
0.53448	2.17453	0
0.53913	2.17287	0
0.54386	2.17124	0
0.54867	2.16962	0
0.55357	2.16803	0
0.55856	2.16646	0
0.56364	2.16491	0
0.56881	2.16339	0
0.57407	2.16188	0
0.57944	2.16040	0
0.58491	2.15894	0
0.59048	2.15750	0
0.59615	2.15608	0
0.60194	2.15468	0
0.60784	2.15330	0
0.61386	2.15193	0
0.62000	2.15059	0
0.62626	2.14927	0
0.63265	2.14797	0
0.63918	2.14668	0
0.64583	2.14542	0
0.65263	2.14417	0
0.65957	2.14294	0
0.66667	2.14173	0
0.67391	2.14054	0
0.68132	2.13936	0
0.68889	2.13820	0
0.69663	2.13706	0
0.70455	2.13594	0
0.71264	2.13483	0
0.72093	2.13374	0
0.72941	2.13267	0
0.73810	2.13161	0
0.74699	2.13057	0
0.75610	2.12954	0
0.76543	2.12854	0
0.77500	2.12754	0
0.78481	2.12656	0
0.79487	2.12560	0
0.80519	2.12465	0
0.81579	2.12372	0
0.82667	2.12281	0
0.83784	2.12190	0
0.84932	2.12102	0
0.86111	2.12015	0
0.87324	2.11929	0
0.88571	2.11844	0
0.89855	2.11762	0
0.91176	2.11680	0
0.92537	2.11600	0
0.93939	2.11521	0
0.95385	2.11444	0
0.96875	2.11368	0
0.98413	2.11294	0
1.00000	2.11220	0
1.01639	2.11149	0
1.03333	2.11078	0
1.05085	2.11009	0
1.06897	2.10941	0
1.08772	2.10875	0
1.10714	2.10810	0
1.12727	2.10746	0
1.14815	2.10683	0
1.16981	2.10622	0
1.19231	2.10562	0
1.21569	2.10503	0
1.24000	2.10445	0
