Material: main / Ta2O5 / Cheikh-amorphous-3.28-8-450
Optical constants. A. Cheikh, J. Gonçalves, C. Labbé, X. Portier, P. Marie, C. Frilay, O. Debieu, S. Duprey, W. Jadwisienczak, D. Ingram, J. Cardin. Tailoring the structural and optical properties of Ta2O5 thin films via radio frequency magnetron sputtering for high-refractive index transparent materials. J. Alloys Compd. 1040, 183273 (2025) (Numerical data kindly provided by Julien Cardin)
Comments: Ta2O5 amorphous thin film. Deposited by radio frequency magnetron sputtering at sputtering power density 3.28 W/cm2 under oxygen flow of 8 sccm. Annealed at 450 °C.
wavelength (um)	n	k
0.20667	2.50052	1.38634
0.20736	2.51717	1.37899
0.20805	2.53385	1.37123
0.20875	2.55055	1.36306
0.20946	2.56725	1.35446
0.21017	2.58394	1.34543
0.21088	2.60061	1.33595
0.21160	2.61725	1.32603
0.21233	2.63383	1.31565
0.21306	2.65034	1.30481
0.21379	2.66677	1.29350
0.21453	2.68309	1.28171
0.21528	2.69929	1.26945
0.21603	2.71535	1.25669
0.21678	2.73125	1.24345
0.21754	2.74697	1.22972
0.21831	2.76248	1.21549
0.21908	2.77777	1.20077
0.21986	2.79281	1.18555
0.22064	2.80757	1.16985
0.22143	2.82205	1.15365
0.22222	2.83620	1.13697
0.22302	2.85002	1.11981
0.22383	2.86347	1.10218
0.22464	2.87653	1.08409
0.22545	2.88917	1.06554
0.22628	2.90137	1.04655
0.22711	2.91312	1.02713
0.22794	2.92437	1.00729
0.22878	2.93512	0.98706
0.22963	2.94534	0.96644
0.23048	2.95500	0.94547
0.23134	2.96409	0.92415
0.23221	2.97259	0.90251
0.23308	2.98047	0.88058
0.23396	2.98772	0.85838
0.23485	2.99432	0.83593
0.23574	3.00026	0.81327
0.23664	3.00553	0.79042
0.23755	3.01011	0.76741
0.23846	3.01399	0.74427
0.23938	3.01717	0.72104
0.24031	3.01963	0.69774
0.24125	3.02138	0.67441
0.24219	3.02241	0.65108
0.24314	3.02271	0.62778
0.24409	3.02230	0.60455
0.24506	3.02117	0.58142
0.24603	3.01933	0.55841
0.24701	3.01679	0.53558
0.24800	3.01355	0.51293
0.24900	3.00962	0.49051
0.25000	3.00502	0.46835
0.25101	2.99976	0.44647
0.25203	2.99386	0.42491
0.25306	2.98732	0.40369
0.25410	2.98018	0.38284
0.25514	2.97245	0.36238
0.25620	2.96415	0.34233
0.25726	2.95530	0.32273
0.25833	2.94592	0.30359
0.25941	2.93604	0.28493
0.26050	2.92568	0.26677
0.26160	2.91487	0.24913
0.26271	2.90364	0.23202
0.26383	2.89199	0.21546
0.26496	2.87998	0.19946
0.26609	2.86761	0.18404
0.26724	2.85492	0.16920
0.26840	2.84194	0.15495
0.26957	2.82869	0.14131
0.27074	2.81519	0.12828
0.27193	2.80149	0.11587
0.27313	2.78760	0.10408
0.27434	2.77355	0.09291
0.27556	2.75937	0.08238
0.27679	2.74509	0.07248
0.27803	2.73073	0.06322
0.27928	2.71633	0.05459
0.28054	2.70192	0.04661
0.28182	2.68752	0.03926
0.28311	2.67316	0.03254
0.28440	2.65888	0.02647
0.28571	2.64471	0.02103
0.28704	2.63067	0.01622
0.28837	2.61682	0.01204
0.28972	2.60318	0.00849
0.29108	2.58981	0.00557
0.29245	2.57674	0.00326
0.29384	2.56404	0.00157
0.29524	2.55180	4.95627E-4
0.29665	2.54013	2.41696E-5
0.29808	2.52931	0
0.29952	2.51922	0
0.30097	2.50966	0
0.30244	2.50053	0
0.30392	2.49178	0
0.30542	2.48336	0
0.30693	2.47525	0
0.30846	2.46742	0
0.31000	2.45985	0
0.31156	2.45252	0
0.31313	2.44541	0
0.31472	2.43851	0
0.31633	2.43180	0
0.31795	2.42528	0
0.31959	2.41893	0
0.32124	2.41275	0
0.32292	2.40673	0
0.32461	2.40086	0
0.32632	2.39513	0
0.32804	2.38954	0
0.32979	2.38407	0
0.33155	2.37874	0
0.33333	2.37352	0
0.33514	2.36842	0
0.33696	2.36343	0
0.33880	2.35855	0
0.34066	2.35376	0
0.34254	2.34908	0
0.34444	2.34450	0
0.34637	2.34000	0
0.34831	2.33560	0
0.35028	2.33128	0
0.35227	2.32705	0
0.35429	2.32289	0
0.35632	2.31882	0
0.35838	2.31482	0
0.36047	2.31090	0
0.36257	2.30704	0
0.36471	2.30326	0
0.36686	2.29955	0
0.36905	2.29590	0
0.37126	2.29231	0
0.37349	2.28879	0
0.37576	2.28533	0
0.37805	2.28192	0
0.38037	2.27858	0
0.38272	2.27529	0
0.38509	2.27205	0
0.38750	2.26887	0
0.38994	2.26574	0
0.39241	2.26267	0
0.39490	2.25964	0
0.39744	2.25666	0
0.40000	2.25373	0
0.40260	2.25084	0
0.40523	2.24800	0
0.40789	2.24521	0
0.41060	2.24245	0
0.41333	2.23974	0
0.41611	2.23708	0
0.41892	2.23445	0
0.42177	2.23186	0
0.42466	2.22932	0
0.42759	2.22681	0
0.43056	2.22434	0
0.43357	2.22190	0
0.43662	2.21950	0
0.43972	2.21714	0
0.44286	2.21481	0
0.44604	2.21252	0
0.44928	2.21026	0
0.45255	2.20803	0
0.45588	2.20584	0
0.45926	2.20367	0
0.46269	2.20154	0
0.46617	2.19944	0
0.46970	2.19737	0
0.47328	2.19533	0
0.47692	2.19332	0
0.48062	2.19134	0
0.48438	2.18938	0
0.48819	2.18745	0
0.49206	2.18555	0
0.49600	2.18368	0
0.50000	2.18184	0
0.50407	2.18002	0
0.50820	2.17822	0
0.51240	2.17645	0
0.51667	2.17471	0
0.52101	2.17299	0
0.52542	2.17130	0
0.52991	2.16962	0
0.53448	2.16798	0
0.53913	2.16635	0
0.54386	2.16475	0
0.54867	2.16317	0
0.55357	2.16161	0
0.55856	2.16008	0
0.56364	2.15857	0
0.56881	2.15707	0
0.57407	2.15560	0
0.57944	2.15415	0
0.58491	2.15272	0
0.59048	2.15132	0
0.59615	2.14993	0
0.60194	2.14856	0
0.60784	2.14721	0
0.61386	2.14588	0
0.62000	2.14457	0
0.62626	2.14327	0
0.63265	2.14200	0
0.63918	2.14074	0
0.64583	2.13951	0
0.65263	2.13829	0
0.65957	2.13709	0
0.66667	2.13590	0
0.67391	2.13474	0
0.68132	2.13359	0
0.68889	2.13246	0
0.69663	2.13134	0
0.70455	2.13024	0
0.71264	2.12916	0
0.72093	2.12810	0
0.72941	2.12705	0
0.73810	2.12601	0
0.74699	2.12499	0
0.75610	2.12399	0
0.76543	2.12301	0
0.77500	2.12204	0
0.78481	2.12108	0
0.79487	2.12014	0
0.80519	2.11922	0
0.81579	2.11830	0
0.82667	2.11741	0
0.83784	2.11653	0
0.84932	2.11566	0
0.86111	2.11481	0
0.87324	2.11397	0
0.88571	2.11315	0
0.89855	2.11234	0
0.91176	2.11154	0
0.92537	2.11076	0
0.93939	2.10999	0
0.95385	2.10924	0
0.96875	2.10850	0
0.98413	2.10777	0
1.00000	2.10705	0
1.01639	2.10635	0
1.03333	2.10566	0
1.05085	2.10499	0
1.06897	2.10432	0
1.08772	2.10368	0
1.10714	2.10304	0
1.12727	2.10241	0
1.14815	2.10180	0
1.16981	2.10120	0
1.19231	2.10062	0
1.21569	2.10004	0
1.24000	2.09948	0
