Material: main / Ta2O5 / Cheikh-amorphous-4.38-12-25
Optical constants. A. Cheikh, J. Gonçalves, C. Labbé, X. Portier, P. Marie, C. Frilay, O. Debieu, S. Duprey, W. Jadwisienczak, D. Ingram, J. Cardin. Tailoring the structural and optical properties of Ta2O5 thin films via radio frequency magnetron sputtering for high-refractive index transparent materials. J. Alloys Compd. 1040, 183273 (2025) (Numerical data kindly provided by Julien Cardin)
Comments: Ta2O5 amorphous thin film. Deposited by radio frequency magnetron sputtering at sputtering power density 4.38 W/cm2 under oxygen flow of 12 sccm. As deposited.
wavelength (um)	n	k
0.20667	2.52354	1.39776
0.20736	2.54051	1.38930
0.20805	2.55746	1.38042
0.20875	2.57437	1.37109
0.20946	2.59124	1.36132
0.21017	2.60804	1.35110
0.21088	2.62476	1.34041
0.21160	2.64138	1.32927
0.21233	2.65789	1.31765
0.21306	2.67426	1.30556
0.21379	2.69048	1.29300
0.21453	2.70652	1.27997
0.21528	2.72237	1.26646
0.21603	2.73800	1.25247
0.21678	2.75340	1.23800
0.21754	2.76855	1.22307
0.21831	2.78342	1.20766
0.21908	2.79798	1.19179
0.21986	2.81223	1.17546
0.22064	2.82614	1.15868
0.22143	2.83967	1.14145
0.22222	2.85283	1.12379
0.22302	2.86557	1.10571
0.22383	2.87788	1.08721
0.22464	2.88975	1.06833
0.22545	2.90114	1.04905
0.22628	2.91204	1.02942
0.22711	2.92243	1.00944
0.22794	2.93230	0.98912
0.22878	2.94162	0.96850
0.22963	2.95037	0.94760
0.23048	2.95855	0.92643
0.23134	2.96614	0.90502
0.23221	2.97313	0.88339
0.23308	2.97950	0.86157
0.23396	2.98525	0.83958
0.23485	2.99036	0.81746
0.23574	2.99483	0.79522
0.23664	2.99866	0.77290
0.23755	3.00184	0.75052
0.23846	3.00436	0.72812
0.23938	3.00624	0.70571
0.24031	3.00746	0.68333
0.24125	3.00803	0.66101
0.24219	3.00796	0.63877
0.24314	3.00725	0.61663
0.24409	3.00590	0.59464
0.24506	3.00393	0.57281
0.24603	3.00135	0.55117
0.24701	2.99816	0.52974
0.24800	2.99439	0.50855
0.24900	2.99003	0.48762
0.25000	2.98512	0.46697
0.25101	2.97965	0.44663
0.25203	2.97365	0.42661
0.25306	2.96714	0.40693
0.25410	2.96014	0.38761
0.25514	2.95265	0.36867
0.25620	2.94471	0.35013
0.25726	2.93633	0.33199
0.25833	2.92753	0.31427
0.25941	2.91833	0.29699
0.26050	2.90875	0.28015
0.26160	2.89882	0.26377
0.26271	2.88855	0.24785
0.26383	2.87796	0.23240
0.26496	2.86707	0.21743
0.26609	2.85591	0.20295
0.26724	2.84450	0.18896
0.26840	2.83285	0.17547
0.26957	2.82099	0.16247
0.27074	2.80894	0.14998
0.27193	2.79671	0.13800
0.27313	2.78433	0.12652
0.27434	2.77181	0.11555
0.27556	2.75919	0.10508
0.27679	2.74647	0.09513
0.27803	2.73367	0.08569
0.27928	2.72081	0.07675
0.28054	2.70792	0.06832
0.28182	2.69501	0.06039
0.28311	2.68210	0.05297
0.28440	2.66921	0.04604
0.28571	2.65636	0.03962
0.28704	2.64356	0.03369
0.28837	2.63085	0.02825
0.28972	2.61823	0.02330
0.29108	2.60573	0.01884
0.29245	2.59337	0.01486
0.29384	2.58118	0.01137
0.29524	2.56917	0.00834
0.29665	2.55738	0.00579
0.29808	2.54584	0.00371
0.29952	2.53459	0.00210
0.30097	2.52366	9.44135E-4
0.30244	2.51313	2.46196E-4
0.30392	2.50310	4.98364E-7
0.30542	2.49377	0
0.30693	2.48496	0
0.30846	2.47655	0
0.31000	2.46849	0
0.31156	2.46073	0
0.31313	2.45325	0
0.31472	2.44601	0
0.31633	2.43900	0
0.31795	2.43221	0
0.31959	2.42562	0
0.32124	2.41921	0
0.32292	2.41298	0
0.32461	2.40691	0
0.32632	2.40101	0
0.32804	2.39525	0
0.32979	2.38963	0
0.33155	2.38415	0
0.33333	2.37880	0
0.33514	2.37357	0
0.33696	2.36846	0
0.33880	2.36346	0
0.34066	2.35857	0
0.34254	2.35379	0
0.34444	2.34910	0
0.34637	2.34452	0
0.34831	2.34003	0
0.35028	2.33563	0
0.35227	2.33131	0
0.35429	2.32709	0
0.35632	2.32294	0
0.35838	2.31887	0
0.36047	2.31488	0
0.36257	2.31097	0
0.36471	2.30712	0
0.36686	2.30335	0
0.36905	2.29964	0
0.37126	2.29600	0
0.37349	2.29243	0
0.37576	2.28892	0
0.37805	2.28547	0
0.38037	2.28207	0
0.38272	2.27874	0
0.38509	2.27546	0
0.38750	2.27224	0
0.38994	2.26907	0
0.39241	2.26595	0
0.39490	2.26289	0
0.39744	2.25987	0
0.40000	2.25691	0
0.40260	2.25399	0
0.40523	2.25111	0
0.40789	2.24829	0
0.41060	2.24550	0
0.41333	2.24277	0
0.41611	2.24007	0
0.41892	2.23741	0
0.42177	2.23480	0
0.42466	2.23223	0
0.42759	2.22969	0
0.43056	2.22719	0
0.43357	2.22473	0
0.43662	2.22231	0
0.43972	2.21993	0
0.44286	2.21758	0
0.44604	2.21526	0
0.44928	2.21298	0
0.45255	2.21073	0
0.45588	2.20852	0
0.45926	2.20633	0
0.46269	2.20418	0
0.46617	2.20206	0
0.46970	2.19998	0
0.47328	2.19792	0
0.47692	2.19589	0
0.48062	2.19389	0
0.48438	2.19192	0
0.48819	2.18997	0
0.49206	2.18806	0
0.49600	2.18617	0
0.50000	2.18431	0
0.50407	2.18248	0
0.50820	2.18067	0
0.51240	2.17889	0
0.51667	2.17713	0
0.52101	2.17540	0
0.52542	2.17369	0
0.52991	2.17200	0
0.53448	2.17034	0
0.53913	2.16871	0
0.54386	2.16709	0
0.54867	2.16550	0
0.55357	2.16393	0
0.55856	2.16239	0
0.56364	2.16087	0
0.56881	2.15936	0
0.57407	2.15788	0
0.57944	2.15642	0
0.58491	2.15498	0
0.59048	2.15356	0
0.59615	2.15217	0
0.60194	2.15079	0
0.60784	2.14943	0
0.61386	2.14809	0
0.62000	2.14677	0
0.62626	2.14547	0
0.63265	2.14419	0
0.63918	2.14292	0
0.64583	2.14168	0
0.65263	2.14045	0
0.65957	2.13924	0
0.66667	2.13805	0
0.67391	2.13688	0
0.68132	2.13572	0
0.68889	2.13458	0
0.69663	2.13346	0
0.70455	2.13236	0
0.71264	2.13127	0
0.72093	2.13020	0
0.72941	2.12914	0
0.73810	2.12810	0
0.74699	2.12708	0
0.75610	2.12607	0
0.76543	2.12508	0
0.77500	2.12410	0
0.78481	2.12314	0
0.79487	2.12219	0
0.80519	2.12126	0
0.81579	2.12035	0
0.82667	2.11945	0
0.83784	2.11856	0
0.84932	2.11769	0
0.86111	2.11683	0
0.87324	2.11599	0
0.88571	2.11516	0
0.89855	2.11435	0
0.91176	2.11355	0
0.92537	2.11276	0
0.93939	2.11199	0
0.95385	2.11123	0
0.96875	2.11049	0
0.98413	2.10975	0
1.00000	2.10904	0
1.01639	2.10833	0
1.03333	2.10764	0
1.05085	2.10696	0
1.06897	2.10629	0
1.08772	2.10564	0
1.10714	2.10500	0
1.12727	2.10437	0
1.14815	2.10376	0
1.16981	2.10316	0
1.19231	2.10257	0
1.21569	2.10199	0
1.24000	2.10142	0
