Material: main / Ta2O5 / Franta-2015
Optical constants. D. Franta, D. Nečas, I. Ohlídal, A. Giglia. Dispersion model for optical thin films applicable in wide spectral range. Proc. SPIE 9628, 96281U (2015) (Numerical data kindly provided by Daniel Franta)
Comments: Film Ta2O5; Deposited by e-beam evaporation on c-Si; 208.4 nm thick film with an amorphous (very fine polycrystalline) structure; Heterogenous data processing combining ellipsometric and spectrophotometric measurements; Room temperature.
Conditions: {"film_thickness": 2.084e-07, "substrate": "c-Si"}
wavelength (um)	n	k
0.142017	1.75765646598	0.886333005409
0.145325	1.75484559353	0.893870344345
0.14871	1.75524705292	0.90400121129
0.152174	1.7586907164	0.916465618449
0.155718	1.76512455337	0.93111937531
0.159346	1.77461848184	0.947890220735
0.163057	1.78736905832	0.966740769294
0.166855	1.80370541629	0.987633256065
0.170742	1.82409570366	1.01049193918
0.174719	1.8491521123	1.03515951015
0.178789	1.87963114128	1.06134427733
0.182953	1.91642379188	1.08855563248
0.187215	1.96052793205	1.11602699161
0.191575	2.01299250547	1.14262889274
0.196038	2.07482200778	1.16678114745
0.200604	2.14683281539	1.18638171564
0.205277	2.22946496573	1.19877709389
0.210058	2.32257425175	1.20079168722
0.214951	2.42523949912	1.18879229412
0.219958	2.53555379135	1.15869685926
0.225082	2.65015259216	1.10587882782
0.230324	2.76304026416	1.02538494105
0.235689	2.86393619434	0.913761513458
0.241179	2.93854073152	0.77338020327
0.246797	2.9738832993	0.616182695881
0.252546	2.96615923199	0.460787011908
0.258428	2.92274982208	0.323702601151
0.264448	2.85662323201	0.213304821799
0.270608	2.77990840762	0.130457292724
0.276911	2.70120836511	0.0721202603413
0.283361	2.62590154248	0.0342552565279
0.289961	2.55754058917	0.0132166402671
0.296715	2.50028498899	0.0051320062982
0.303627	2.45467107162	0.00210311499348
0.310699	2.41716814799	0.000878183376996
0.317936	2.38555134719	0.000373748904917
0.325342	2.35835317911	0.000162131349259
0.33292	2.33458542898	7.16800280362e-05
0.340675	2.3135606744	3.22911263446e-05
0.34861	2.29478336256	1.48185685151e-05
0.35673	2.27788405379	6.92525822776e-06
0.36504	2.2625791124	3.29481919566e-06
0.373542	2.24864530319	1.5953160685e-06
0.382243	2.23590325272	7.85835776307e-07
0.391147	2.22420632067	3.93672569315e-07
0.400258	2.21343287478	2.00495055859e-07
0.409581	2.20348077537	1.0377246363e-07
0.419121	2.19426333851	5.45646555877e-08
0.428884	2.18570631669	2.91356412465e-08
0.438874	2.17774559765	1.57920822547e-08
0.449097	2.17032542165	8.68450579189e-09
0.459558	2.16339698036	4.842607042e-09
0.470262	2.15691730173	2.73582082077e-09
0.481216	2.15084835245	1.56407092749e-09
0.492425	2.14515630823	9.03222663199e-10
0.503895	2.13981095516	5.25328087361e-10
0.515632	2.13478519451	3.06223124285e-10
0.527643	2.13005463009	1.77381598991e-10
0.539933	2.12559722192	1.00495257076e-10
0.55251	2.12139299382	5.38779390148e-11
0.565379	2.11742378499	2.51013501217e-11
0.578549	2.11367303783	6.95656963112e-12
0.592025	2.11012561583	1.7571625296e-260
0.605815	2.1067676464	3.38625170808e-248
0.619926	2.10358638474	1.76080150561e-236
0.634366	2.10057009535	2.62274305044e-225
0.649142	2.09770794856	1.18480909064e-214
0.664263	2.09498992969	1.7141837616e-204
0.679735	2.0924067592	8.36716955904e-195
0.695568	2.08994982206	1.44804822884e-185
0.71177	2.0876111052	9.31672681305e-177
0.72835	2.08538314193	2.33172831727e-168
0.745315	2.08325896232	2.37024444511e-160
0.762676	2.08123204882	1.01982013342e-152
0.780441	2.07929629648	1.93183807293e-145
0.798619	2.07744597715	1.67285981894e-138
0.817222	2.07567570713	6.86394377465e-132
0.836257	2.07398041802	1.38098526929e-125
0.855736	2.07235533013	1.40768517743e-119
0.875669	2.07079592843	7.50028791764e-114
0.896066	2.0692979405	2.15201307945e-108
0.916938	2.06785731644	3.42103021731e-103
0.938296	2.06647021043	3.09601320765e-98
0.960152	2.06513296372	1.63694940496e-93
0.982517	2.06384208897	5.18316460432e-89
1.0054	2.0625942558	1.00631515024e-84
1.02882	2.06138627725	1.22528640677e-80
1.05279	2.06021509731	9.55972993341e-77
1.07731	2.05907777917	4.87834480151e-73
1.1024	2.05797149419	1.66045301117e-69
1.12808	2.05689351154	3.84086088787e-66
1.15436	2.05584118838	6.14651541733e-63
1.18124	2.05481196051	6.92189369009e-60
1.20876	2.05380333336	5.5754021909e-57
1.23692	2.05281287348	3.26227469341e-54
1.26573	2.05183820012	1.40730794875e-51
1.29521	2.05087697714	4.53989669153e-49
1.32538	2.04992690496	1.1114739955e-46
1.35625	2.04898571272	2.13348979472e-44
1.38784	2.04805115023	3.99464098171e-42
1.42017	2.04712098006	1.49331928033e-39
1.45325	2.04619296922	9.17925047707e-37
1.4871	2.04526488079	4.55720723603e-34
1.52174	2.04433446489	1.56762740325e-31
1.55718	2.0433994493	3.72839138024e-29
1.59346	2.0424575292	6.23173755576e-27
1.63057	2.04150635588	7.45196013698e-25
1.66855	2.04054352421	6.48711301253e-23
1.70742	2.03956655835	4.17985914555e-21
1.74719	2.03857289527	2.02520361827e-19
1.78789	2.03755986498	7.4904850356e-18
1.82953	2.03652466702	2.14539319259e-16
1.87215	2.03546434104	4.82369405377e-15
1.91575	2.03437573019	8.62504498581e-14
1.96038	2.03325543273	1.24168282875e-12
2.00604	2.03209973862	1.45621495786e-11
2.05277	2.03090454145	1.40687246009e-10
2.10058	2.02966521317	1.13164473006e-09
2.14951	2.02837641715	7.65556538797e-09
2.19958	2.02703181517	4.39770899705e-08
2.25082	2.02562359163	2.16482532528e-07
2.30324	2.02414167415	9.21162295436e-07
2.35689	2.02257251241	3.41625706666e-06
2.41179	2.02089730987	1.11296113663e-05
2.46797	2.01908960861	3.20969081879e-05
2.52546	2.017111224	8.26941767026e-05
2.58428	2.01489986848	0.000194056216982
2.64448	2.01231786509	0.000449877942775
2.70608	2.00912895926	0.00130040508571
2.76911	2.00613700706	0.00385514058957
2.83361	2.00552838837	0.00689304069059
2.89961	2.00571724935	0.00794322833683
2.96715	2.00514521867	0.00843590538167
3.03627	2.00461724446	0.00869865747088
3.10699	2.00377068547	0.00838217336343
3.17936	2.00234647982	0.0079487333001
3.25342	2.00063722184	0.00766441463289
3.3292	1.9988647724	0.00740327017861
3.40675	1.99699589071	0.00699146695352
3.4861	1.99489119543	0.0063849758946
3.5673	1.99243820585	0.0056472163574
3.6504	1.9895900661	0.00488164863127
3.73542	1.9863568739	0.0041864740731
3.82243	1.98278556167	0.00363263948901
3.91147	1.97893965243	0.00325586516192
4.00258	1.9748817027	0.00305750442034
4.09581	1.97065983871	0.00301146156569
4.19121	1.96629952478	0.00307478790397
4.28884	1.96180094861	0.00319946763211
4.38874	1.95714153938	0.00334301119914
4.49097	1.9522821779	0.00347601285102
4.59558	1.94717518707	0.00358573677318
4.70262	1.94177207169	0.00367581829591
4.81216	1.93602952534	0.00376299720997
4.92425	1.92991288841	0.00387223239985
5.03895	1.92339703514	0.00403154433195
5.15632	1.9164651649	0.00426760772395
5.27643	1.90910630674	0.0046026514708
5.39933	1.90131227227	0.00505278309809
5.5251	1.89307466195	0.00562754217003
5.65379	1.88438228291	0.00633033126106
5.78549	1.87521913788	0.00715935064926
5.92025	1.8655628474	0.00810872608137
6.05815	1.85538353318	0.00916961647695
6.19926	1.84464284254	0.0103311866978
6.34366	1.8332930316	0.0115814056068
6.49142	1.82127595221	0.0129076783459
6.64263	1.80852171959	0.0142973465157
6.79735	1.79494708478	0.0157380951789
6.95568	1.78045309906	0.0172183056964
7.1177	1.76492214776	0.0187273832355
7.2835	1.74821368097	0.0202560881697
7.45315	1.7301582445	0.0217968969413
7.62676	1.71054861069	0.023344430643
7.80441	1.68912612509	0.0248960138167
7.98619	1.6655574409	0.0264525136043
8.17222	1.63939015421	0.0280199482339
8.36257	1.6099467877	0.0296150790761
8.55736	1.57594565217	0.0313654827807
8.75669	1.53465519962	0.0352418759733
8.96066	1.48862251625	0.0491801990926
9.16938	1.45249897201	0.0649383662409
9.38296	1.40561982876	0.0634081421966
9.60152	1.32832059043	0.0722576786931
9.82517	1.23901484673	0.111315332669
10.054	1.15498718491	0.182007587656
10.2882	1.09459520968	0.2779959545
10.5279	1.06815755699	0.376312686851
10.7731	1.06083990641	0.453559907597
11.024	1.04574715032	0.510886550208
11.2808	1.01398016403	0.570932207734
11.5436	0.983829035139	0.64328470267
11.8124	0.957012155698	0.7056714151
12.0876	0.897017400945	0.767060656872
12.3692	0.82667363938	0.874623748631
12.6573	0.768981062549	0.97955249354
12.9521	0.637356172013	1.13002579973
13.2538	0.558933684598	1.44341297115
13.5625	0.648788705931	1.78151924167
13.8784	0.840911698037	2.0530225056
14.2017	1.08454415992	2.25124772299
14.5325	1.35474760753	2.37804560761
14.871	1.63165191076	2.43446656029
15.2174	1.89592267771	2.42470503127
15.5718	2.1298588059	2.35793880645
15.9346	2.31924302431	2.24823831573
16.3057	2.45488776463	2.11360653902
16.6855	2.53401518986	1.97477904222
17.0742	2.56217031075	1.85350539296
17.4719	2.55553100924	1.76850403286
17.8789	2.5401275911	1.7274921757
18.2953	2.54236375166	1.71959062207
18.7215	2.57352446792	1.71909780983
19.1575	2.62351342426	1.70230800816
19.6038	2.67108039133	1.66168627145
20.0604	2.69901849969	1.60590034759
20.5277	2.70198215169	1.55026185002
21.0058	2.68496249328	1.50709984714
21.4951	2.65697871403	1.48154986939
21.9958	2.62546415728	1.47292927207
22.5082	2.59427161366	1.47849903053
23.0324	2.56475896212	1.49626796103
23.5689	2.5377298438	1.52566232974
24.1179	2.51462164566	1.56679688045
24.6797	2.49762883914	1.61949661866
25.2546	2.4891752425	1.68274966421
25.8428	2.49126841676	1.75474947027
26.4448	2.50513147589	1.83336344699
27.0608	2.5312943107	1.91670773646
27.6911	2.57009049857	2.00348338277
28.3361	2.62229695958	2.09283636013
28.9961	2.68953727694	2.18372512547
29.6715	2.77411801455	2.27405605445
30.3627	2.87821958005	2.36005157727
31.0699	3.00273213037	2.43628040748
31.7936	3.14627290051	2.49645829827
32.5342	3.30484387613	2.53472202923
33.292	3.47225346117	2.54687667777
34.0675	3.6410928877	2.53120731146
34.861	3.80391114643	2.48869040143
35.673	3.95426683296	2.42266174816
36.504	4.08745590523	2.33812000755
37.3542	4.20084185844	2.24087618532
38.2243	4.29381375058	2.13673398168
39.1147	4.36745985514	2.0308329106
40.0258	4.42407331429	1.92722496399
40.9581	4.46660716498	1.828698392
41.9121	4.49817670359	1.73681664368
42.8884	4.52167507573	1.65211124645
43.8874	4.53953134296	1.57435614154
44.9097	4.55360696484	1.50285631334
45.9558	4.56520290031	1.43670082831
47.0262	4.57513839019	1.37495287571
48.1216	4.58386303178	1.31677035156
49.2425	4.59157212443	1.26146541456
50.3895	4.59830662538	1.20851886978
51.5632	4.60402952934	1.15756639342
52.7643	4.60867802288	1.10837090574
53.9933	4.61219500174	1.06079118647
55.251	4.61454512279	1.01475273178
56.5379	4.61572046149	0.97022366898
57.8549	4.61573992979	0.927196448922
59.2025	4.61464546896	0.88567487052
60.5815	4.61249699404	0.845665485865
61.9926	4.60936725782	0.80717233019
63.4366	4.60533723863	0.770194023706
64.9142	4.60049229716	0.734722475183
66.4263	4.59491914086	0.700742609132
67.9735	4.5887035282	0.668232706052
69.5568	4.58192860196	0.637165077482
71.177	4.57467373213	0.607506895131
72.835	4.56701375814	0.579221061914
74.5315	4.55901853644	0.552267058773
76.2676	4.55075271647	0.526601731318
78.0441	4.5422756849	0.502179999082
79.8619	4.53364163108	0.4789554817
81.7222	4.5248996981	0.456881042958
83.6257	4.5160941924	0.435909257274
85.5736	4.50726483174	0.415992804934
87.5669	4.49844701625	0.397084803132
89.6066	4.48967211158	0.379139079815
91.6938	4.48096773548	0.362110397146
93.8296	4.47235804197	0.345954630836
96.0152	4.46386399883	0.330628911078
98.2517	4.45550365496	0.316091730293
100.54	4.44729239584	0.302303022292
102.882	4.43924318559	0.289224216996
105.279	4.43136679482	0.276818274364
107.731	4.42367201391	0.265049700749
110.24	4.41616585178	0.253884550515
112.808	4.40885372029	0.243290415385
115.436	4.40173960445	0.233236403719
118.124	4.39482621949	0.223693111554
120.876	4.38811515486	0.214632587079
123.692	4.38160700603	0.206028289954
