Material: main / Ta2O5 / Franta-2025
Optical constants. D. Franta, J. Vohánka, J. Dvořák, P. Franta, I. Ohlídal, P. Klapek, J. Březina, D. Škoda. Wide spectral range optical characterization of tantalum pentoxide (Ta2O5) films by the universal dispersion model. Opt. Mater. Express 15, 903–919 (2025) (Numerical data kindly provided by Daniel Franta)
Comments: Films Ta2O5; Deposited by e-beam evaporation on c-Si; Five samples with a polycrystalline structure and nominal thicknesses 20–250 nm; Multi-sample method; Heterogenous data processing combining ellipsometric and spectrophotometric measurements; Slightly inhomogeneous layers; Optical constants correspond to the characterization with homogeneous films; Room temperature.
wavelength (um)	n	k
0.115976	1.95525612011	1.12287306552
0.118405	1.95734145054	1.05582112078
0.120884	1.95008800103	0.997466814425
0.123416	1.93617784864	0.948380161687
0.126	1.91790999657	0.908522206631
0.128638	1.89716430586	0.877483226923
0.131332	1.87543588332	0.854657044059
0.134082	1.85389817687	0.8393550208
0.136889	1.83347037613	0.830873490579
0.139756	1.81487745247	0.828529277262
0.142682	1.79869884848	0.831675262732
0.14567	1.78540581731	0.839704569511
0.14872	1.77538917599	0.852048985158
0.151834	1.76897980086	0.868175023091
0.155014	1.76646416131	0.887579416569
0.15826	1.76809688029	0.909784730311
0.161573	1.77411188423	0.934335017001
0.164957	1.78473324609	0.960790945285
0.168411	1.80018637837	0.988723503015
0.171937	1.82070982004	1.01770516105
0.175537	1.84656747124	1.04729719456
0.179213	1.87806071089	1.0770316309
0.182966	1.91553927889	1.10638597286
0.186797	1.95940894054	1.13474842315
0.190708	2.01013250706	1.16137088518
0.194702	2.06821837955	1.18530679037
0.198779	2.134186921	1.2053314185
0.202941	2.20849917727	1.21984514731
0.207191	2.29142483843	1.22676752061
0.211529	2.38281888249	1.22344639836
0.215958	2.48177612184	1.20663716205
0.22048	2.58615678171	1.17265407363
0.225097	2.69205337083	1.11784421375
0.229811	2.79342427853	1.03952604667
0.234623	2.88231024239	0.937358637318
0.239535	2.95007226603	0.814691031872
0.244551	2.98963696072	0.678998032726
0.249672	2.99785201515	0.540637491843
0.2549	2.97655632351	0.410198077671
0.260237	2.9316829595	0.295827846169
0.265687	2.87108905032	0.201893315648
0.27125	2.80243049752	0.12921021509
0.27693	2.73190487982	0.0761573130925
0.282729	2.66390405269	0.0398850333462
0.288649	2.60123028009	0.0172069270664
0.294693	2.54555101578	0.00511158226446
0.300864	2.49803965344	0.000988994475335
0.307164	2.46023468867	0.000793079737524
0.313596	2.42888136653	0.000668624343802
0.320162	2.40183838209	0.00056492324531
0.326866	2.3780754762	0.00047845211899
0.33371	2.35693290345	0.000406225633721
0.340698	2.33794644703	0.000345763935834
0.347832	2.32077134263	0.000295023358971
0.355116	2.30514204304	0.000252325405142
0.362552	2.29084846219	0.000216293049076
0.370143	2.27772089521	0.00018579641655
0.377894	2.26561993458	0.000159907551976
0.385807	2.25442945466	0.000137863227191
0.393885	2.24405157551	0.00011903457355
0.402133	2.23440295378	0.00010290237825
0.410554	2.22541199199	8.903702469e-05
0.41915	2.21701670028	7.70822130664e-05
0.427927	2.20916303205	6.67417452742e-05
0.436888	2.20180357074	5.77687883136e-05
0.446036	2.1948964808	4.99571404789e-05
0.455376	2.18840466078	4.31341158153e-05
0.464911	2.18229505281	3.7154736862e-05
0.474646	2.17653807469	3.18969861164e-05
0.484585	2.17110714896	2.72579153834e-05
0.494732	2.16597830963	2.31504513393e-05
0.505091	2.16112987144	1.95007670807e-05
0.515668	2.15654214997	1.62461146369e-05
0.526465	2.1521972233	1.33330336423e-05
0.537489	2.14807872789	1.07158675857e-05
0.548744	2.14417168248	8.35553207434e-06
0.560235	2.14046233495	6.21849002484e-06
0.571966	2.13693802655	4.27589711433e-06
0.583942	2.13358706517	2.50288762117e-06
0.59617	2.13039857192	8.77976250241e-07
0.608653	2.12736214188	8.06170455107e-233
0.621398	2.12447008311	1.35841288528e-221
0.63441	2.12171339606	7.09095202519e-211
0.647694	2.11908391109	1.20558480582e-200
0.661256	2.1165741156	7.00419968599e-191
0.675103	2.11417702411	1.45601405444e-181
0.689239	2.11188611694	1.13178795923e-172
0.703671	2.10969529488	3.43166457654e-164
0.718406	2.10759884144	4.22636648969e-156
0.733449	2.10559138995	2.19786156536e-148
0.748807	2.10366789433	5.00897522667e-141
0.764487	2.10182360302	5.1842090718e-134
0.780495	2.10005403534	2.5212963851e-127
0.796838	2.09835496016	5.95354179564e-121
0.813523	2.09672237649	7.04278747673e-115
0.830558	2.09515249579	4.30099291163e-109
0.847949	2.09364172576	1.39552747083e-103
0.865705	2.09218665553	2.47297620694e-98
0.883832	2.09078404205	2.45740751145e-93
0.902339	2.08943079748	1.40440421437e-88
0.921234	2.08812397766	4.72916928494e-84
0.940524	2.08686077135	9.60356894773e-80
0.960218	2.08563849031	1.20250880096e-75
0.980325	2.08445456003	9.48412887616e-72
1.00085	2.08330651111	4.8085688706e-68
1.02181	2.08219197124	1.59817775202e-64
1.04321	2.0811086576	3.54771143149e-61
1.06505	2.08005436982	5.3550670487e-58
1.08735	2.07902698326	5.59145686082e-55
1.11012	2.07802444275	4.10546855236e-52
1.13337	2.07704475653	2.1533257279e-49
1.1571	2.07608599066	8.19044342102e-47
1.18133	2.07514626348	2.29202388342e-44
1.20606	2.07422374048	4.7845568416e-42
1.23132	2.07331662926	7.54947074831e-40
1.2571	2.07242317468	9.11884873256e-38
1.28342	2.07154165415	8.534421305e-36
1.3103	2.07067037305	6.26117227382e-34
1.33773	2.06980766018	3.6408781795e-32
1.36575	2.06895186333	1.69605688893e-30
1.39434	2.06810134483	6.39404014785e-29
1.42354	2.06725447707	1.96987282441e-27
1.45335	2.06640963802	5.00580970916e-26
1.48378	2.06556520665	1.05865643805e-24
1.51485	2.0647195582	1.87925034494e-23
1.54657	2.06387105928	2.82297816494e-22
1.57896	2.06301806271	3.61671956798e-21
1.61202	2.06215890206	3.98153843318e-20
1.64577	2.06129188578	3.79331923183e-19
1.68023	2.06041529072	3.14911950241e-18
1.71542	2.05952735509	2.29297803884e-17
1.75134	2.05862627044	1.47355953106e-16
1.78801	2.05771017259	8.40794839081e-16
1.82545	2.05677713107	4.28401467448e-15
1.86367	2.05582513668	1.95986283777e-14
1.9027	2.05485208652	8.09254853435e-14
1.94254	2.05385576568	3.0311063454e-13
1.98322	2.05283382432	1.03478237451e-12
2.02474	2.05178374848	3.23454429852e-12
2.06714	2.05070282184	9.29801016111e-12
2.11042	2.04958807472	2.46826880127e-11
2.15462	2.04843621393	6.07509616968e-11
2.19973	2.0472435237	1.39166809045e-10
2.24579	2.04600572097	2.97881333546e-10
2.29282	2.044717736	5.99796548314e-10
2.34083	2.04337336487	1.17392388142e-09
2.38985	2.04196468837	2.68095635048e-09
2.43989	2.04048103148	1.08762736355e-08
2.49098	2.03890693058	7.1018723129e-08
2.54314	2.03721769657	4.73771447571e-07
2.59639	2.03536813346	2.8670503175e-06
2.65076	2.03325569768	1.75793507884e-05
2.70626	2.03054021839	0.000166918070289
2.76293	2.02717716165	0.00220096905514
2.82078	2.02666275878	0.00430919473373
2.87985	2.02596407915	0.00562283833317
2.94015	2.02543429627	0.00600076535798
3.00172	2.02444160539	0.00635725025044
3.06457	2.02355466306	0.00649725495352
3.12874	2.02236724549	0.00632304085037
3.19426	2.02089724055	0.00617478691024
3.26114	2.01936846337	0.00603140648966
3.32943	2.01775802043	0.00573114922427
3.39915	2.01591701622	0.00526667988027
3.47032	2.013776852	0.00475383231468
3.54299	2.0113810835	0.00429398030823
3.61718	2.00881103665	0.00390747460108
3.69292	2.00611388433	0.00355093174658
3.77025	2.00327784238	0.00316877084597
3.84919	2.00024840913	0.00273603401599
3.92979	1.99696228043	0.00227679676017
4.01208	1.99338438499	0.00186042299856
4.09609	1.98954197173	0.00157248427065
4.18186	1.98553099521	0.00145406585051
4.26943	1.98145741058	0.0014448817241
4.35883	1.97733822945	0.00140590701259
4.4501	1.97306701976	0.00122907541804
4.54328	1.96849537932	0.000923566506217
4.63842	1.96354141493	0.000588210449295
4.73554	1.95821577474	0.000318022623051
4.8347	1.95256859305	0.000147416185862
4.93594	1.94663253897	5.95502437018e-05
5.0393	1.94040448922	2.14798496438e-05
5.14482	1.9338548379	7.17443805694e-06
5.25255	1.92694022501	2.34743584122e-06
5.36253	1.9196083881	8.95079778805e-07
5.47482	1.91179420747	1.2125983284e-06
5.58946	1.90340597141	7.61622554961e-06
5.7065	1.89429799242	5.05210147561e-05
5.82599	1.88424520281	0.000262789697199
5.94799	1.87301547252	0.00104006210212
6.07253	1.8607022556	0.0031414028369
6.19969	1.84821955703	0.00732075149862
6.32951	1.83724243839	0.0133431630419
6.46204	1.82894989997	0.0193250970804
6.59736	1.82244533347	0.0227023706433
6.7355	1.81464974443	0.0224766357157
6.87654	1.80244929502	0.0213359871113
7.02053	1.78817312564	0.0245625670284
7.16754	1.77963925468	0.0292736591564
7.31762	1.77298298022	0.0252753307063
7.47085	1.75737690525	0.0162880780469
7.62728	1.73484411004	0.0112171416242
7.78699	1.71091853851	0.00985649293346
7.95005	1.68617988301	0.0095353284413
8.11652	1.65948066553	0.00951234891252
8.28648	1.62997952963	0.0100510483737
8.45999	1.59716893062	0.0116582616005
8.63714	1.56071287765	0.0148889915003
8.818	1.52031546644	0.0202889603632
9.00264	1.47555703345	0.0284413170981
9.19115	1.42575146551	0.0402065725474
9.38361	1.37002432498	0.0571956481679
9.5801	1.30790570814	0.0823113412436
9.7807	1.24064088566	0.11985256166
9.9855	1.17295731778	0.174295718233
10.1946	1.11382805265	0.246860763941
10.4081	1.07313044033	0.331004854821
10.626	1.0534861056	0.412725870965
10.8485	1.04528531884	0.47958163915
11.0757	1.03209728756	0.53075105093
11.3076	1.00315695422	0.579095347545
11.5444	0.964754964151	0.639478795406
11.7861	0.930532578884	0.707431392473
12.0329	0.889294916428	0.769566047491
12.2849	0.8241747085	0.847526451725
12.5421	0.762057984113	0.951757851719
12.8047	0.674932880755	1.05940551143
13.0728	0.5460524962	1.26707094808
13.3466	0.524321796851	1.59228998676
13.626	0.64421598414	1.90436171058
13.9114	0.845870114816	2.14902986902
14.2027	1.08776791476	2.32145706212
14.5001	1.34364835535	2.42540441769
14.8037	1.59363039577	2.46978009912
15.1137	1.82612061925	2.46794650193
15.4301	2.03915494014	2.43093965109
15.7532	2.23335233607	2.36078053728
16.0831	2.40085577493	2.25437351296
16.4199	2.52407961561	2.11687707567
16.7637	2.58831625894	1.96959952382
17.1147	2.59586062584	1.84286376038
17.4731	2.56855464237	1.76010280374
17.839	2.53747812118	1.72598110912
18.2125	2.52813168833	1.72575477006
18.5939	2.55006280169	1.73428524874
18.9832	2.59520680578	1.7287922129
19.3807	2.6448547388	1.69887589701
19.7865	2.6808627736	1.64866621853
20.2009	2.6939927321	1.59090674611
20.6239	2.68500826608	1.53834795876
21.0557	2.66013080628	1.49851535185
21.4966	2.62587482893	1.47370149459
21.9467	2.58674002344	1.46366500048
22.4063	2.54559174109	1.4678277453
22.8755	2.50479143872	1.48586986448
23.3545	2.46679557285	1.5173776064
23.8435	2.434096928	1.56141598901
24.3428	2.40886940759	1.61641214035
24.8525	2.39264221832	1.68035293245
25.3729	2.38617260441	1.75115769516
25.9042	2.38956269374	1.82706501369
26.4466	2.40258100896	1.90689477957
27.0004	2.42509116637	1.99009076229
27.5658	2.45745554691	2.07650743698
28.143	2.50077101986	2.16597577906
28.7323	2.55681905747	2.25776328341
29.3339	2.62769084912	2.35011068685
29.9481	2.71517106221	2.44003566247
30.5752	2.82007574093	2.52351002717
31.2155	2.94176768687	2.59597157169
31.8691	3.07799509894	2.65300781362
32.5364	3.22507005749	2.69101293416
33.2177	3.37829916162	2.70766795631
33.9133	3.53253648987	2.70217743263
34.6234	3.68273891463	2.67526759226
35.3484	3.82443801269	2.6289935622
36.0886	3.95408029627	2.56642021271
36.8443	4.06921886133	2.49124162192
37.6158	4.16856270259	2.40739567243
38.4034	4.25190534467	2.31871763058
39.2076	4.31996332008	2.22866242235
40.0286	4.37415843221	2.14011152713
40.8667	4.41637689468	2.05526805538
41.7225	4.44873434567	1.97563343895
42.5961	4.47336941022	1.90205167291
43.488	4.49228090512	1.83480241931
44.3987	4.50721581636	1.77372259631
45.3283	4.5196077975	1.71833713361
46.2775	4.53056003486	1.66798287502
47.2465	4.54086243498	1.62191438521
48.2358	4.55103155555	1.57938562492
49.2459	4.56136221093	1.53970617892
50.2771	4.57198163784	1.50227427879
51.3298	4.58289977871	1.46659097674
52.4047	4.59405194946	1.43226059782
53.502	4.60533238474	1.39898238039
54.6223	4.61661883942	1.36653737222
55.766	4.62778925938	1.33477364238
56.9338	4.63873212075	1.30359180157
58.1259	4.64935196797	1.27293201305
59.3431	4.65957158752	1.24276302407
60.5857	4.66933198544	1.21307332816
61.8543	4.67859106909	1.18386431512
63.1495	4.68732162637	1.1551451536
64.4718	4.6955090714	1.12692908722
65.8218	4.70314919881	1.09923085083
67.2001	4.71024612266	1.07206493555
68.6072	4.71681041431	1.04544449495
70.0438	4.72285754627	1.01938069583
71.5105	4.72840659486	0.993882387859
73.0079	4.73347914658	0.968955996773
74.5367	4.7380984694	0.944605547261
76.0974	4.74228874788	0.920832797672
77.6908	4.74607464839	0.897637389259
79.3177	4.74948080823	0.875017061144
80.9785	4.75253158349	0.852967843029
82.6742	4.75525076385	0.831484267936
84.4053	4.75766141554	0.810559564364
86.1727	4.75978575297	0.79018584047
87.9771	4.7616450627	0.770354252099
89.8193	4.76325959053	0.751055166991
91.7001	4.76464860707	0.732278289201
93.6203	4.76583031508	0.714012798159
95.5806	4.7668218919	0.696247454823
97.582	4.76763949169	0.678970703608
99.6254	4.76829822926	0.662170766264
101.711	4.76881233707	0.645835701899
103.841	4.76919502493	0.62995349991
106.016	4.76945863212	0.614512123525
108.236	4.76961471442	0.599499556265
110.502	4.76967380212	0.584903882742
112.816	4.76964591765	0.570713267158
115.178	4.76954013989	0.55691604602
117.59	4.76936499558	0.543500713102
120.052	4.76912821888	0.530455976102
122.566	4.7688370425	0.517770746805
125.132	4.76849799253	0.505434184217
127.753	4.76811730417	0.49343566635
130.428	4.76770031118	0.481764868441
133.159	4.76725235558	0.470411679088
135.947	4.76677790001	0.459366299798
138.794	4.76628135108	0.448619168573
141.7	4.76576632242	0.438161035954
144.667	4.76523640711	0.427982893807
147.696	4.76469499978	0.418075995742
150.789	4.76414481479	0.408431899605
153.947	4.76358836593	0.39904242235
157.17	4.76302804544	0.389899632335
160.461	4.76246595777	0.380995861053
163.821	4.76190397652	0.372323694636
167.251	4.7613437726	0.363875967468
170.754	4.76078683068	0.355645756329
174.329	4.76023446446	0.347626374262
177.979	4.759687831	0.339811364235
181.706	4.75914794396	0.332194492633
185.511	4.75861568592	0.324769742666
189.396	4.75809181984	0.317531307707
193.361	4.75757699962	0.310473584627
197.41	4.75707177997	0.303591167138
201.544	4.75657662546	0.296878839193
205.764	4.75609191889	0.290331568455
210.073	4.75561796911	0.283944499864
214.472	4.75515501808	0.277712949316
218.963	4.7547032475	0.271632397466
223.548	4.75426278487	0.26569848368
228.228	4.75383370903	0.259907000129
233.007	4.75341605532	0.254253886039
237.887	4.75300982022	0.248735222118
242.868	4.7526149657	0.24334722513
247.953	4.75223142313	0.238086242656
253.145	4.75185909691	0.232948748016
258.446	4.75149786771	0.227931335368
263.858	4.75114759553	0.223030714978
269.383	4.7508081224	0.218243708654
275.024	4.75047927489	0.213567245358
280.782	4.75016086635	0.208998356972
286.662	4.74985269897	0.204534174233
292.664	4.74955456566	0.200171922828
298.793	4.74926625168	0.195908919636
305.049	4.74898753623	0.191742569127
311.437	4.74871819375	0.187670359908
317.958	4.74845799519	0.183689861404
324.616	4.7482067091	0.179798720689
331.413	4.74796410263	0.175994659436
338.353	4.74772994237	0.172275471002
345.438	4.74750399521	0.168639017642
352.671	4.74728602894	0.165083227834
360.056	4.74707581295	0.16160609372
367.595	4.7468731187	0.158205668664
375.292	4.74667772027	0.154880064905
383.151	4.74648939468	0.151627451324
391.174	4.74630792233	0.148446051299
399.365	4.74613308723	0.145334140654
