Material: misc / soda-lime / Vogt-10ppm
Optical constants. 1) M. R. Vogt, H. Hahn, H. Holst, M. Winter, C. Schinke, M. Köntges, R. Brendel, P. P. Altermatt, Measurement of the optical constants of soda-lime glasses in dependence of iron content, and modeling of iron-related power losses in crystalline Si solar cell modules, IEEE J. Photovolt. 6, 111-118 (2016)2) M. R. Vogt. Development of physical models for the simulation of optical properties of solar cell modules, PhD. Thesis (2015)
Comments: Fe2O3 content 0.01‰ (10 ppm). Room temperature.
wavelength (um)	n	k
0.25	1.589	5.97E-06
0.26	1.582	6.12E-06
0.27	1.574	6.22E-06
0.28	1.568	6.42E-06
0.29	1.562	6.59E-06
0.30	1.557	6.24E-06
0.31	1.553	4.77E-06
0.32	1.549	2.73E-06
0.33	1.546	1.21E-06
0.34	1.543	4.52E-07
0.35	1.54	1.70E-07
0.36	1.538	8.86E-08
0.37	1.536	6.94E-08
0.38	1.534	6.55E-08
0.39	1.532	5.65E-08
0.4	1.53	4.27E-08
0.41	1.529	3.54E-08
0.42	1.527	3.43E-08
0.43	1.526	3.64E-08
0.44	1.525	3.77E-08
0.45	1.524	3.70E-08
0.46	1.523	3.56E-08
0.47	1.522	3.25E-08
0.48	1.521	2.83E-08
0.49	1.52	2.58E-08
0.5	1.519	2.54E-08
0.51	1.518	2.54E-08
0.52	1.518	2.56E-08
0.53	1.517	2.53E-08
0.54	1.516	2.51E-08
0.55	1.516	2.62E-08
0.56	1.515	2.87E-08
0.57	1.515	3.35E-08
0.58	1.514	3.83E-08
0.59	1.514	4.11E-08
0.6	1.513	4.38E-08
0.61	1.513	4.82E-08
0.62	1.512	5.33E-08
0.63	1.512	5.79E-08
0.64	1.512	6.23E-08
0.65	1.511	7.03E-08
0.66	1.511	7.93E-08
0.67	1.511	8.41E-08
0.68	1.51	8.85E-08
0.69	1.51	9.58E-08
0.7	1.51	1.05E-07
0.71	1.51	1.13E-07
0.72	1.509	1.20E-07
0.73	1.509	1.30E-07
0.74	1.509	1.42E-07
0.75	1.509	1.52E-07
0.76	1.508	1.62E-07
0.77	1.508	1.74E-07
0.78	1.508	1.85E-07
0.79	1.508	1.95E-07
0.8	1.508	2.04E-07
0.81	1.508	2.15E-07
0.82	1.507	2.25E-07
0.83	1.507	2.36E-07
0.84	1.507	2.47E-07
0.85	1.507	2.57E-07
0.86	1.507	2.67E-07
0.87	1.507	2.77E-07
0.88	1.506	2.86E-07
0.89	1.506	2.94E-07
0.9	1.506	3.02E-07
0.91	1.506	3.09E-07
0.92	1.506	3.17E-07
0.93	1.506	3.23E-07
0.94	1.506	3.30E-07
0.95	1.506	3.36E-07
0.96	1.506	3.42E-07
0.97	1.505	3.47E-07
0.98	1.505	3.53E-07
0.99	1.505	3.57E-07
1	1.505	3.62E-07
1.01	1.505	3.68E-07
1.02	1.505	3.73E-07
1.03	1.505	3.78E-07
1.04	1.505	3.84E-07
1.05	1.505	3.88E-07
1.06	1.505	3.92E-07
1.07	1.505	3.97E-07
1.08	1.505	4.00E-07
1.09	1.504	4.03E-07
1.1	1.504	4.07E-07
1.11	1.504	4.09E-07
1.12	1.504	4.11E-07
1.13	1.504	4.13E-07
1.14	1.504	4.15E-07
1.15	1.504	4.17E-07
1.16	1.504	4.18E-07
1.17	1.504	4.19E-07
1.18	1.504	4.21E-07
1.19	1.504	4.21E-07
1.2	1.504	4.21E-07
1.21	1.504	4.21E-07
1.22	1.504	4.19E-07
1.23	1.504	4.18E-07
1.24	1.504	4.17E-07
1.25	1.504	4.15E-07
1.26	1.504	4.14E-07
1.27	1.503	4.12E-07
1.28	1.503	4.10E-07
1.29	1.503	4.08E-07
1.3	1.503	4.04E-07
1.31	1.503	4.02E-07
1.32	1.503	3.99E-07
1.33	1.503	3.96E-07
1.34	1.503	3.92E-07
1.35	1.503	3.89E-07
1.36	1.503	3.86E-07
1.37	1.503	3.83E-07
1.38	1.503	3.80E-07
1.39	1.503	3.76E-07
1.4	1.503	3.73E-07
1.41	1.503	3.69E-07
1.42	1.503	3.64E-07
1.43	1.503	3.59E-07
1.44	1.503	3.54E-07
1.45	1.503	3.48E-07
1.46	1.503	3.43E-07
1.47	1.503	3.36E-07
1.48	1.503	3.32E-07
1.49	1.503	3.27E-07
1.5	1.503	3.22E-07
1.51	1.503	3.18E-07
1.52	1.503	3.15E-07
1.53	1.503	3.12E-07
1.54	1.503	3.07E-07
1.55	1.503	3.04E-07
1.56	1.503	2.99E-07
1.57	1.503	2.94E-07
1.58	1.502	2.90E-07
1.59	1.502	2.86E-07
1.6	1.502	2.81E-07
1.61	1.502	2.77E-07
1.62	1.502	2.75E-07
1.63	1.502	2.73E-07
1.64	1.502	2.73E-07
1.65	1.502	2.75E-07
1.66	1.502	2.80E-07
1.67	1.502	2.87E-07
1.68	1.502	2.94E-07
1.69	1.502	3.03E-07
1.70	1.502	3.13E-07
