Material: glass / sumita / K-VC91
Optical constants. SUMITA Zemax catalog 2017-02-02 (obtained from http://www.sumita-opt.co.jp)See also SUMITA optical glass data book
Specs: {"n_absolute": false, "wavelength_vacuum": false, "temperature": "20.0 °C", "thermal_dispersion": [{"type": "Schott formula", "coefficients": "-1.08e-06 1.12e-08 -9.02e-11 8.61e-07 1.32e-09 0.245"}], "nd": 1.8866, "Vd": 35.0, "glass_code": 887350, "density": "4.87 g/cm3", "thermal_expansion": [{"temperature_range": "-30 70 °C", "coefficient": "7.7e-06 K-1"}, {"temperature_range": "20 300 °C", "coefficient": "9.5e-06 K-1"}], "dPgF": -0.0045, "climatic_resistance": 1.0, "acid_resistance": 1.0}
Dispersion formula 3, range 0.36 1.55 um, coefficients 3.4399333 -0.014633437 2 0.037625197 -2 0.0021748752 -4 -0.00016417982 -6 1.5817576e-05 -8
wavelength (um)	k
0.350	1.0896E-05
0.360	5.3409E-06
0.370	2.9594E-06
0.380	1.7696E-06
0.390	1.1114E-06
0.400	7.3024E-07
0.420	3.5958E-07
0.440	2.3907E-07
0.460	1.6089E-07
0.480	1.1635E-07
0.500	8.0384E-08
0.550	3.9569E-08
0.600	3.3540E-08
0.650	3.6335E-08
0.700	2.7922E-08
0.800	1.9127E-08
1.060	1.6887E-08
1.500	2.3897E-08
2.000	3.2154E-07
