Material: main / CO2 / Geints-11bar-50fs
Optical constants. Y. E. Geints, V. O. Kompanets, S. V. Chekalin. Measurements of optical Kerr nonlinearity n2 in compressed gases. Opt. Commun. 596, 132584 (2025)
Comments: 50 fs (Short pulse regime). Self-focusing. Room temperature, 11 bar.
Conditions: {"n2_method": "SF", "pulse_duration": "50e-15", "pressure": "11e5"}
wavelength (um)	n	2
0.80	27.3e-24
