Material: main / GdF3 / Franta
Optical constants. D. Franta, J. Vohánka, J. Dvořák, P. Franta, I. Ohlídal, P. Klapetek, J. Březina, D. Škoda. Optical characterization of gadolinium fluoride films using universal dispersion model. Coatings 13, 218 (2023) (Numerical data kindly provided by Daniel Franta)
Comments: Films GdF3; Deposited by thermal evaporation on c-Si; Five samples with a polycrystalline structure and nominal thicknesses 20–600 nm; Multi-sample method; Heterogenous data processing combining ellipsometric and spectrophotometric measurements; Inhomogeneous layers; Optical constants correspond to the thinest film; Room temperature.
Conditions: {"substrate": "c-Si"}
wavelength (um)	n	k
0.119975	2.23990445738	0.0998228273205
0.122135	2.18034049603	0.061184516417
0.124334	2.12308660844	0.0317729717996
0.126573	2.06821893413	0.0114823594692
0.128852	2.01698165484	0.00107530973702
0.131172	1.97471690516	1.74808036637e-08
0.133533	1.94162551557	1.8756462809e-08
0.135938	1.91368389723	2.00768875059e-08
0.138385	1.88945373646	2.14526282758e-08
0.140877	1.86810452514	2.28910538543e-08
0.143413	1.8490805649	2.43983986717e-08
0.145996	1.83198165861	2.59804243324e-08
0.148624	1.81650609752	2.76427159739e-08
0.1513	1.80241904787	2.93908415183e-08
0.154025	1.78953331081	3.12304491269e-08
0.156798	1.77769683508	3.3167333091e-08
0.159621	1.76678421989	3.52074834345e-08
0.162495	1.75669071864	3.73571246145e-08
0.165421	1.7473278827	3.96227487989e-08
0.168399	1.73862032079	4.20111459981e-08
0.171431	1.73050323972	4.45294307604e-08
0.174518	1.72292054628	4.718506969e-08
0.17766	1.71582336061	4.99859070074e-08
0.180859	1.70916883689	5.29401904451e-08
0.184115	1.70291921706	5.60565987069e-08
0.18743	1.69704106391	5.93442674819e-08
0.190805	1.69150463376	6.28128183934e-08
0.194241	1.68628335916	6.64723875903e-08
0.197738	1.68135341906	7.03336563336e-08
0.201298	1.67669337917	7.44078822539e-08
0.204923	1.6722838892	7.87069328495e-08
0.208612	1.66810742641	8.32433202828e-08
0.212368	1.66414807731	8.80302375181e-08
0.216192	1.66039135078	9.30815968257e-08
0.220085	1.65682401743	9.8412070317e-08
0.224047	1.65343397082	1.04037132467e-07
0.228081	1.65021010713	1.09973104147e-07
0.232188	1.64714222039	1.1623720063e-07
0.236369	1.64422091098	1.2284758063e-07
0.240625	1.64143750527	1.29823399119e-07
0.244957	1.63878398509	1.37184861791e-07
0.249368	1.63625292536	1.44953284109e-07
0.253857	1.63383743892	1.53151151726e-07
0.258428	1.6315311276	1.61802185975e-07
0.263081	1.62932803861	1.70931411417e-07
0.267818	1.62722262568	1.80565228037e-07
0.27264	1.62520971429	1.90731487426e-07
0.277549	1.62328447044	2.01459572033e-07
0.282546	1.62144237267	2.12780480411e-07
0.287634	1.61967918681	2.24726916232e-07
0.292813	1.61799094322	2.3733338115e-07
0.298085	1.6163739162	2.50636275231e-07
0.303452	1.6148246053	2.64674001108e-07
0.308916	1.61333971846	2.79487073814e-07
0.314478	1.61191615656	2.95118237609e-07
0.32014	1.61055099944	3.116125888e-07
0.325904	1.60924149309	3.29017704835e-07
0.331772	1.60798503798	3.47383781624e-07
0.337746	1.60677917833	3.66763776741e-07
0.343827	1.60562159239	3.87213562781e-07
0.350018	1.60451008336	4.08792086593e-07
0.35632	1.60344257116	4.31561539526e-07
0.362735	1.60241708483	4.55587535489e-07
0.369266	1.6014317555	4.80939299688e-07
0.375915	1.60048480995	5.07689867481e-07
0.382684	1.59957456457	5.35916294127e-07
0.389574	1.59869941991	5.65699875898e-07
0.396588	1.59785785547	5.97126384079e-07
0.403729	1.59704842503	6.30286311175e-07
0.410998	1.59626975222	6.65275130773e-07
0.418398	1.59552052638	7.02193572016e-07
0.425932	1.59479949881	7.41147908799e-07
0.433601	1.59410547918	7.82250265533e-07
0.441408	1.59343733225	8.25618938984e-07
0.449355	1.59279397475	8.71378738691e-07
0.457446	1.59217437256	9.19661344673e-07
0.465682	1.59157753792	9.70605687327e-07
0.474067	1.59100252701	1.02435834561e-06
0.482603	1.59044843751	1.08107396892e-06
0.491292	1.58991440643	1.14091572149e-06
0.500138	1.58939960802	1.20405575161e-06
0.509143	1.58890325181	1.27067568656e-06
0.51831	1.58842458079	1.34096715487e-06
0.527643	1.58796286967	1.4151323374e-06
0.537143	1.58751742328	1.49338454895e-06
0.546814	1.58708757502	1.57594885152e-06
0.55666	1.58667268542	1.66306270209e-06
0.566683	1.58627214077	1.75497663566e-06
0.576886	1.58588535186	1.85195498595e-06
0.587273	1.58551175276	1.95427664642e-06
0.597847	1.58515079962	2.06223587249e-06
0.608611	1.58480196965	2.17614312876e-06
0.619569	1.58446476005	2.29632598273e-06
0.630725	1.58413868705	2.4231300483e-06
0.642081	1.58382328495	2.55691998012e-06
0.653642	1.58351810528	2.69808052436e-06
0.665411	1.58322271593	2.84701762712e-06
0.677392	1.58293670037	3.00415960384e-06
0.689588	1.58265965691	3.16995837265e-06
0.702004	1.58239119791	3.34489075818e-06
0.714644	1.58213094918	3.52945986466e-06
0.727512	1.58187854926	3.72419652732e-06
0.740611	1.58163364881	3.92966084235e-06
0.753945	1.58139591002	4.14644378296e-06
0.76752	1.58116500602	4.37516890337e-06
0.78134	1.58094062036	4.61649413884e-06
0.795408	1.58072244644	4.87111370412e-06
0.809729	1.58051018704	5.13976009699e-06
0.824309	1.58030355382	5.4232062143e-06
0.839151	1.58010226687	5.7222675831e-06
0.85426	1.57990605425	6.0378047176e-06
0.869641	1.57971465153	6.37072560486e-06
0.885299	1.57952780146	6.72198832999e-06
0.901239	1.57934525347	7.09260384615e-06
0.917466	1.57916676335	7.48363889847e-06
0.933985	1.57899209284	7.89621910987e-06
0.950802	1.57882100929	8.33153223945e-06
0.967921	1.57865328531	8.79083162065e-06
0.985349	1.57848869841	9.27543979089e-06
1.00309	1.57832703067	9.78675232353e-06
1.02115	1.57816806845	1.03262418723e-05
1.03954	1.57801160204	1.08954624412e-05
1.05825	1.57785742539	1.14960538916e-05
1.07731	1.57770533576	1.21297467014e-05
1.09671	1.57755513349	1.2798366988e-05
1.11645	1.57740662167	1.35038418123e-05
1.13655	1.57725960585	1.42482047777e-05
1.15702	1.57711389385	1.50336019426e-05
1.17785	1.57696929537	1.58622980619e-05
1.19906	1.57682562181	1.67366831779e-05
1.22065	1.57668268597	1.76592795785e-05
1.24262	1.57654030179	1.86327491466e-05
1.265	1.57639828413	1.96599011184e-05
1.28777	1.57625644843	2.07437002768e-05
1.31096	1.57611461055	2.18872756059e-05
1.33457	1.57597258648	2.30939294264e-05
1.35859	1.57583019204	2.43671470488e-05
1.38306	1.57568724273	2.57106069633e-05
1.40796	1.57554355341	2.71281916055e-05
1.43331	1.57539893803	2.86239987288e-05
1.45912	1.57525320943	3.02023534115e-05
1.48539	1.57510617906	3.18678207443e-05
1.51213	1.57495765675	3.36252192323e-05
1.53936	1.57480745036	3.54796349526e-05
1.56708	1.57465536574	3.74364365084e-05
1.59529	1.57450120614	3.9501290837e-05
1.62401	1.57434477225	4.16801799001e-05
1.65326	1.5741858618	4.39794183286e-05
1.68302	1.57402426916	4.64056720665e-05
1.71333	1.57385978539	4.8965978063e-05
1.74417	1.57369219757	5.16677651016e-05
1.77558	1.57352128889	5.45188757922e-05
1.80755	1.57334683804	5.75275898366e-05
1.84009	1.57316861905	6.07026486068e-05
1.87322	1.57298640107	6.40532811246e-05
1.90695	1.57279994784	6.75892315438e-05
1.94129	1.57260901745	7.1320788187e-05
1.97624	1.57241336221	7.52588142479e-05
2.01182	1.57221272798	7.94147802723e-05
2.04805	1.57200685423	8.38007984803e-05
2.08492	1.57179547308	8.84296591075e-05
2.12246	1.57157830959	9.33148687812e-05
2.16068	1.57135508095	9.84706911712e-05
2.19958	1.57112549622	0.000103912189959
2.23918	1.57088925609	0.000109655274297
2.2795	1.57064605185	0.000115716746965
2.32054	1.57039556589	0.00012211435521
2.36233	1.57013747056	0.000128866844674
2.40486	1.56987142783	0.000135994016413
2.44816	1.56959708878	0.000143516787268
2.49224	1.56931409409	0.00015145725367
2.53711	1.56902207121	0.000159838759524
2.58279	1.56872063654	0.000168685967599
2.6293	1.56840939301	0.000178024935592
2.67664	1.56808792997	0.000187883196456
2.72483	1.56775582332	0.000198289843469
2.77389	1.5674126337	0.000209275620581
2.82384	1.5670579066	0.000220873017928
2.87468	1.56669117165	0.000233116373155
2.92644	1.56631194202	0.000246041978791
2.97913	1.56591971272	0.00025968819627
3.03277	1.56551396168	0.000274095576383
3.08738	1.56509414709	0.000289306987625
3.14297	1.56465970722	0.000305367751945
3.19956	1.56421006061	0.000322325788653
3.25717	1.56374460309	0.000340231767754
3.31581	1.56326270937	0.000359139271767
3.37551	1.56276372895	0.000379104968715
3.43629	1.56224698925	0.000400188794164
3.49816	1.56171179081	0.000422454146418
3.56115	1.56115740564	0.00044596809323
3.62527	1.56058308198	0.000470801589538
3.69054	1.55998803627	0.000497029712507
3.75699	1.55937145461	0.000524731908736
3.82463	1.55873249227	0.000553992257578
3.8935	1.55807027294	0.000584899751268
3.9636	1.55738388264	0.000617548594961
4.03497	1.55667237326	0.000652038522521
4.10762	1.55593475941	0.000688475135119
4.18157	1.55517001399	0.000726970262511
4.25686	1.55437707209	0.000767642344204
4.33351	1.55355482143	0.000810616841824
4.41154	1.5527021094	0.000856026670609
4.49097	1.55181773293	0.000904012668257
4.57183	1.55090044133	0.00095472408826
4.65414	1.54994893117	0.00100831913072
4.73794	1.5489618426	0.00106496550858
4.82325	1.5479377681	0.00112484104346
4.91009	1.5468752318	0.00118813432277
4.9985	1.54577269543	0.00125504538405
5.0885	1.54462856531	0.00132578644404
5.18012	1.54344116707	0.00140058270581
5.27339	1.54220876222	0.00147967318755
5.36834	1.54092953355	0.0015633116371
5.465	1.53960159018	0.00165176749338
5.56339	1.53822294607	0.00174532694485
5.66356	1.53679154755	0.00184429401117
5.76554	1.53530522527	0.00194899179006
5.86935	1.53376173385	0.00205976369277
5.97503	1.53215871068	0.00217697487123
6.08261	1.53049369038	0.0023010136819
6.19213	1.52876410801	0.00243229327113
6.30362	1.52696725635	0.00257125335524
6.41712	1.5251003254	0.00271836200808
6.53266	1.5231603398	0.00287411775941
6.65028	1.52114422302	0.00303905163348
6.77002	1.5190487307	0.00321372958968
6.89191	1.51687045311	0.0033987550369
7.016	1.51460583199	0.00359477151355
7.14233	1.51225113473	0.0038024656797
7.27093	1.50980240691	0.00402257062684
7.40184	1.50725551796	0.00425586923113
7.53511	1.5046061498	0.00450319792374
7.67079	1.50184975425	0.00476545088473
7.8089	1.4989814939	0.00504358468497
7.9495	1.49599631711	0.00533862290578
8.09263	1.49288892403	0.00565166150533
8.23834	1.48965368042	0.00598387490206
8.38668	1.48628466413	0.00633652213168
8.53768	1.4827756185	0.0067109539373
8.6914	1.479119942	0.00710862039651
8.84789	1.4753106619	0.00753107936106
9.0072	1.47134034301	0.00798000608907
9.16938	1.46720117726	0.00845720290655
9.33447	1.46288487747	0.00896461088646
9.50254	1.4583825691	0.00950432288382
9.67364	1.45368494846	0.0100785962559
9.84781	1.44878200998	0.0106898697961
10.0251	1.44366328113	0.0113407790201
10.2056	1.43831726797	0.0120341792202
10.3894	1.43273204137	0.0127731621712
10.5764	1.42689463916	0.013561084597
10.7669	1.42079136628	0.0144015923507
10.9607	1.41440731164	0.015298655148
11.1581	1.40772674088	0.0162565968464
11.359	1.40073247082	0.0172801408789
11.5635	1.39340615944	0.0183744515596
11.7717	1.38572802961	0.0195451878759
11.9837	1.37767644153	0.0207985679616
12.1994	1.36922855366	0.0221414268999
12.4191	1.36035861811	0.0235813210479
12.6427	1.35103937786	0.025126598536
12.8703	1.34124091698	0.0267865248038
13.1021	1.33093043265	0.0285714148489
13.338	1.32007158009	0.0304927992014
13.5781	1.30862492997	0.032563595834
13.8226	1.29654628452	0.0347983681563
14.0715	1.283787352	0.0372135766837
14.3248	1.27029346888	0.0398279688749
14.5828	1.25600451936	0.0426629624686
14.8453	1.24085170732	0.0457432587608
15.1126	1.22475854518	0.0490974633492
15.3847	1.20763651848	0.0527590828413
15.6617	1.18938685913	0.0567675437288
15.9437	1.16989306172	0.0611699554303
16.2308	1.14902226012	0.0660229951327
16.523	1.12661773967	0.0713959299057
16.8205	1.10249387296	0.0773746260208
17.1234	1.07643143231	0.0840670973783
17.4317	1.04816321913	0.0916121958925
17.7456	1.01736257874	0.100192129291
18.0651	0.983621983904	0.110052355617
18.3903	0.946416992746	0.121534686259
18.7215	0.905047967801	0.135137975417
19.0586	0.858514017009	0.151671847253
19.4017	0.805342059932	0.172772302298
19.751	0.744138951392	0.202241556506
20.1067	0.676994461571	0.246904626111
20.4687	0.614181760911	0.310614780308
20.8372	0.565309745592	0.383212956173
21.2124	0.521180533436	0.452297944012
21.5943	0.466862932089	0.52678051933
21.9831	0.408728264243	0.626060031049
22.379	0.368090248652	0.75119832779
22.7819	0.354765981133	0.88723268863
23.1921	0.366001168648	1.02110324532
23.6097	0.392110867745	1.14526920364
24.0348	0.419711806543	1.26467622361
24.4675	0.448975719831	1.39762952829
24.9081	0.500338117995	1.55402435318
25.3565	0.596869498837	1.72560649882
25.8131	0.761886727984	1.89457737143
26.2779	1.0330835855	2.00334984055
26.751	1.3257664189	1.89190191664
27.2326	1.35206874511	1.70654244762
27.723	1.33504321021	1.72248441205
28.2221	1.41949213423	1.75033508136
28.7303	1.52032646476	1.72636671725
29.2476	1.59929408237	1.6684236188
29.7742	1.64631069636	1.59543421434
30.3103	1.6607560184	1.52112688076
30.856	1.64480421874	1.45475623528
31.4116	1.5995269129	1.40367706522
31.9772	1.52429243506	1.37906178073
32.5529	1.42494926136	1.4019230779
33.139	1.33155592056	1.49469593363
33.7357	1.29699666702	1.64663404931
34.3431	1.34897981948	1.80037856611
34.9615	1.45997835945	1.89814165472
35.591	1.57269986211	1.92125678306
36.2318	1.63350169479	1.89369769803
36.8842	1.6143641984	1.87341785266
37.5483	1.54105302258	1.94075562423
38.2243	1.53303071795	2.13074465235
38.9126	1.69038929935	2.30754926955
39.6132	1.89670261659	2.33282972533
40.3264	2.01688327875	2.26423913972
41.0525	2.03752355219	2.19381838417
41.7917	1.97839389634	2.17392270038
42.5442	1.86966858722	2.25685890449
43.3102	1.79159485328	2.4844044983
44.09	1.85345829739	2.81594988116
44.8838	2.09328962594	3.1376075098
45.692	2.46071935925	3.35898196412
46.5147	2.87883589466	3.45643010575
47.3522	3.2980779636	3.45793495257
48.2048	3.72405984661	3.39963426191
49.0727	4.204873246	3.26203788734
49.9563	4.7342181115	2.92529152965
50.8557	5.11166019617	2.30183690634
51.7714	5.119156178	1.5932945448
52.7036	4.85335924027	1.07666196392
53.6525	4.52729803618	0.790588501073
54.6185	4.24213584569	0.653114910154
55.6019	4.01558435485	0.594713640262
56.6031	3.83934976712	0.576690264242
57.6222	3.70159589503	0.579727948212
58.6597	3.59250361044	0.59454565149
59.7159	3.50491377061	0.616941264381
60.7911	3.4339170758	0.645390347026
61.8856	3.376414407	0.679915595657
62.9999	3.33089632458	0.721572763567
64.1342	3.29753185513	0.772217336743
65.289	3.27868509637	0.834306462536
66.4645	3.28006662784	0.910358259229
67.6612	3.3127216594	1.00116881665
68.8795	3.39529539426	1.10064027858
70.1197	3.55208350233	1.18358396092
71.3822	3.791164109	1.18882613902
72.6674	4.04779107252	1.03838275845
73.9758	4.18246430847	0.750236973129
75.3078	4.14568527045	0.466866600302
76.6637	4.02037859383	0.277411795349
78.0441	3.8839720201	0.172695488519
79.4493	3.76542653613	0.119511726444
80.8798	3.66888954463	0.0939663241944
82.336	3.59123353192	0.0827013162789
83.8185	3.52833889577	0.0787144678535
85.3277	3.47671383433	0.0783637429519
86.864	3.43369944578	0.0797394185727
88.428	3.39733251943	0.0818321529983
90.0202	3.36616908125	0.0841089843414
91.641	3.33913946878	0.086293603822
93.291	3.31544198464	0.0882499289082
94.9708	3.29446767138	0.0899190295559
96.6807	3.27574758168	0.091284285073
98.4215	3.25891571009	0.0923518369484
100.194	3.24368271463	0.0931395104591
101.998	3.22981708225	0.093670513639
103.834	3.2171314669	0.0939698727056
105.704	3.20547265781	0.0940624528122
107.607	3.19471412417	0.093971903471
109.544	3.18475040982	0.0937201439048
111.517	3.17549287171	0.0933271616577
113.525	3.16686640577	0.0928109898135
115.569	3.15880690608	0.0921877824831
117.649	3.1512592746	0.0914719406462
119.768	3.14417584811	0.0906762599631
121.924	3.13751514467	0.0898120840051
124.119	3.13124085654	0.0888894535483
126.354	3.12532103535	0.0879172469356
128.629	3.11972742788	0.0869033091475
130.945	3.11443493124	0.0858545687813
133.303	3.10942114301	0.0847771430489
135.703	3.10466598765	0.0836764313974
138.146	3.10015140446	0.0825571986109
140.634	3.09586108555	0.0814236483528
