Material: main / GaAs / Gadras
Optical constants. P. Gadras, L. Bourdon, A. Fées, K. Ben Saddik, A. Guilhem, A. Arnoult. Optical refractive index measurements of AlGaAs at high temperature for fully automated molecular beam epitaxy growth of Bragg mirrors. J. Phys. D: Appl. Phys. 58, 0022-3727 (2025) (Numerical data kindly provided by Pierre Gadras)
Comments: AlxGa1-xAs; x=0.0; 600 °C
Conditions: {"temperature": 873}
wavelength (um)	n	k
4.502291e-01	4.208995e+00	1.642261e+00
4.527289e-01	4.237830e+00	1.632813e+00
4.552287e-01	4.260470e+00	1.621484e+00
4.577284e-01	4.292734e+00	1.605375e+00
4.602282e-01	4.324942e+00	1.589354e+00
4.627280e-01	4.355712e+00	1.567117e+00
4.652278e-01	4.388675e+00	1.545532e+00
4.677275e-01	4.413562e+00	1.523079e+00
4.702273e-01	4.447656e+00	1.493822e+00
4.727271e-01	4.473502e+00	1.459701e+00
4.752268e-01	4.498807e+00	1.425499e+00
4.777266e-01	4.525010e+00	1.384887e+00
4.802264e-01	4.544036e+00	1.344370e+00
4.827261e-01	4.561730e+00	1.301090e+00
4.852259e-01	4.573565e+00	1.255818e+00
4.877257e-01	4.586411e+00	1.209755e+00
4.902255e-01	4.593355e+00	1.163750e+00
4.927252e-01	4.597036e+00	1.119239e+00
4.952250e-01	4.600374e+00	1.075491e+00
4.977248e-01	4.597647e+00	1.033945e+00
5.002245e-01	4.592985e+00	9.933796e-01
5.027243e-01	4.587071e+00	9.552920e-01
5.052241e-01	4.579893e+00	9.190921e-01
5.077238e-01	4.570992e+00	8.851690e-01
5.102236e-01	4.562395e+00	8.528207e-01
5.127234e-01	4.553423e+00	8.228574e-01
5.152232e-01	4.541871e+00	7.947051e-01
5.177229e-01	4.529649e+00	7.686078e-01
5.202227e-01	4.519316e+00	7.436269e-01
5.227225e-01	4.507478e+00	7.202569e-01
5.252222e-01	4.497464e+00	6.982222e-01
5.277220e-01	4.485346e+00	6.774505e-01
5.302218e-01	4.471698e+00	6.588645e-01
5.327215e-01	4.462180e+00	6.401965e-01
5.352213e-01	4.449710e+00	6.230276e-01
5.377211e-01	4.438071e+00	6.065723e-01
5.402209e-01	4.425986e+00	5.913381e-01
5.427206e-01	4.413689e+00	5.762508e-01
5.452204e-01	4.402922e+00	5.619981e-01
5.477202e-01	4.390752e+00	5.490006e-01
5.502199e-01	4.379748e+00	5.362611e-01
5.527197e-01	4.369820e+00	5.235580e-01
5.552195e-01	4.359084e+00	5.116154e-01
5.577193e-01	4.348296e+00	5.002270e-01
5.602190e-01	4.337931e+00	4.899064e-01
5.627188e-01	4.327538e+00	4.794822e-01
5.652186e-01	4.317591e+00	4.701788e-01
5.677183e-01	4.309048e+00	4.607875e-01
5.702181e-01	4.299018e+00	4.522889e-01
5.727179e-01	4.290733e+00	4.443043e-01
5.752176e-01	4.281945e+00	4.359801e-01
5.777174e-01	4.272088e+00	4.287591e-01
5.802172e-01	4.263489e+00	4.211970e-01
5.827170e-01	4.254317e+00	4.138108e-01
5.852167e-01	4.245836e+00	4.071257e-01
5.877165e-01	4.237059e+00	4.006768e-01
5.902163e-01	4.229627e+00	3.940729e-01
5.927160e-01	4.221271e+00	3.879391e-01
5.952158e-01	4.213196e+00	3.821429e-01
5.977156e-01	4.205219e+00	3.765535e-01
6.002153e-01	4.198556e+00	3.706537e-01
6.027151e-01	4.190943e+00	3.657190e-01
6.052149e-01	4.183414e+00	3.606103e-01
6.077147e-01	4.176573e+00	3.554175e-01
6.102144e-01	4.169968e+00	3.506446e-01
6.127142e-01	4.162873e+00	3.462323e-01
6.152140e-01	4.156118e+00	3.415600e-01
6.177137e-01	4.149612e+00	3.376485e-01
6.202135e-01	4.143210e+00	3.337155e-01
6.227133e-01	4.137830e+00	3.291705e-01
6.252130e-01	4.131014e+00	3.254239e-01
6.277128e-01	4.125244e+00	3.217515e-01
6.302126e-01	4.119156e+00	3.177891e-01
6.327124e-01	4.113207e+00	3.147577e-01
6.352121e-01	4.106756e+00	3.111030e-01
6.377119e-01	4.102031e+00	3.075852e-01
6.402117e-01	4.096429e+00	3.045762e-01
6.427114e-01	4.090751e+00	3.014664e-01
6.452112e-01	4.085113e+00	2.985474e-01
6.477110e-01	4.080014e+00	2.951542e-01
6.502108e-01	4.074703e+00	2.921193e-01
6.527105e-01	4.069788e+00	2.895013e-01
6.552103e-01	4.065058e+00	2.869045e-01
6.577101e-01	4.060345e+00	2.835724e-01
6.602098e-01	4.055515e+00	2.808728e-01
6.627096e-01	4.051216e+00	2.785072e-01
6.652094e-01	4.046476e+00	2.752042e-01
6.677091e-01	4.041899e+00	2.733458e-01
6.702089e-01	4.037017e+00	2.711657e-01
6.727087e-01	4.032829e+00	2.683926e-01
6.752085e-01	4.028375e+00	2.663709e-01
6.777082e-01	4.023666e+00	2.642006e-01
6.802080e-01	4.019097e+00	2.621165e-01
6.827078e-01	4.014650e+00	2.604687e-01
6.852075e-01	4.011516e+00	2.578549e-01
6.877073e-01	4.006822e+00	2.558208e-01
6.902071e-01	4.003289e+00	2.533735e-01
6.927068e-01	3.999029e+00	2.511980e-01
6.952066e-01	3.995411e+00	2.490623e-01
6.977064e-01	3.991796e+00	2.464266e-01
7.002062e-01	3.987444e+00	2.447643e-01
7.027059e-01	3.984191e+00	2.424638e-01
7.052057e-01	3.980661e+00	2.405603e-01
7.077055e-01	3.976933e+00	2.386033e-01
7.102052e-01	3.973371e+00	2.369165e-01
7.127050e-01	3.969760e+00	2.350697e-01
7.152048e-01	3.966699e+00	2.325213e-01
7.177045e-01	3.964042e+00	2.312533e-01
7.202043e-01	3.960512e+00	2.288913e-01
7.227041e-01	3.957514e+00	2.271458e-01
7.252039e-01	3.954894e+00	2.248479e-01
7.277036e-01	3.951970e+00	2.232678e-01
7.302034e-01	3.949091e+00	2.212369e-01
7.327032e-01	3.946084e+00	2.199687e-01
7.352029e-01	3.944287e+00	2.176948e-01
7.377027e-01	3.940957e+00	2.170189e-01
7.402025e-01	3.937949e+00	2.149617e-01
7.427023e-01	3.935185e+00	2.137987e-01
7.452020e-01	3.932744e+00	2.120248e-01
7.477018e-01	3.930805e+00	2.106228e-01
7.502016e-01	3.928387e+00	2.090812e-01
7.527013e-01	3.925649e+00	2.070197e-01
7.552011e-01	3.923197e+00	2.057466e-01
7.577009e-01	3.920646e+00	2.043849e-01
7.602006e-01	3.918618e+00	2.025145e-01
7.627004e-01	3.915992e+00	2.012768e-01
7.652002e-01	3.913887e+00	2.000917e-01
7.677000e-01	3.911704e+00	1.985060e-01
7.701997e-01	3.909589e+00	1.970100e-01
7.726995e-01	3.907773e+00	1.953177e-01
7.751993e-01	3.905618e+00	1.940593e-01
7.776990e-01	3.903353e+00	1.927523e-01
7.801988e-01	3.901599e+00	1.912051e-01
7.826986e-01	3.899431e+00	1.902308e-01
7.851983e-01	3.897034e+00	1.885793e-01
7.876981e-01	3.895079e+00	1.872314e-01
7.901979e-01	3.893245e+00	1.860735e-01
7.926977e-01	3.891492e+00	1.841099e-01
7.951974e-01	3.888992e+00	1.828641e-01
7.976972e-01	3.887954e+00	1.814112e-01
8.001970e-01	3.886128e+00	1.801058e-01
8.026967e-01	3.884207e+00	1.786399e-01
8.051965e-01	3.882691e+00	1.780553e-01
8.076963e-01	3.880802e+00	1.761637e-01
8.101961e-01	3.879297e+00	1.747378e-01
8.126958e-01	3.877916e+00	1.736657e-01
8.151956e-01	3.876052e+00	1.721013e-01
8.176954e-01	3.874190e+00	1.709886e-01
8.201951e-01	3.872626e+00	1.703128e-01
8.226949e-01	3.871108e+00	1.694853e-01
8.251947e-01	3.869421e+00	1.669295e-01
8.276944e-01	3.867546e+00	1.648354e-01
8.301942e-01	3.866127e+00	1.639749e-01
8.326940e-01	3.864268e+00	1.620083e-01
8.351938e-01	3.862811e+00	1.604084e-01
8.376935e-01	3.860859e+00	1.591872e-01
8.401933e-01	3.859565e+00	1.578614e-01
8.426931e-01	3.857301e+00	1.559421e-01
8.451928e-01	3.855468e+00	1.547771e-01
8.476926e-01	3.854183e+00	1.536708e-01
8.501924e-01	3.851933e+00	1.535204e-01
8.526921e-01	3.850314e+00	1.504184e-01
8.551919e-01	3.849163e+00	1.472707e-01
8.576917e-01	3.846853e+00	1.472525e-01
8.601915e-01	3.845368e+00	1.455255e-01
8.626912e-01	3.843705e+00	1.454116e-01
8.651910e-01	3.842271e+00	1.431396e-01
8.676908e-01	3.840651e+00	1.417216e-01
8.701905e-01	3.838449e+00	1.410128e-01
8.726903e-01	3.836423e+00	1.403626e-01
8.751901e-01	3.834621e+00	1.382835e-01
8.776898e-01	3.832689e+00	1.377624e-01
8.801896e-01	3.830829e+00	1.357003e-01
8.826894e-01	3.829674e+00	1.346263e-01
8.851892e-01	3.827983e+00	1.335855e-01
8.876889e-01	3.826494e+00	1.330681e-01
8.901887e-01	3.824682e+00	1.311779e-01
8.926885e-01	3.823261e+00	1.301418e-01
8.951882e-01	3.820667e+00	1.287259e-01
8.976880e-01	3.819899e+00	1.279186e-01
9.001878e-01	3.817784e+00	1.271855e-01
9.026876e-01	3.815980e+00	1.260558e-01
9.051873e-01	3.814729e+00	1.248574e-01
9.076871e-01	3.813384e+00	1.240802e-01
9.101869e-01	3.811351e+00	1.231187e-01
9.126866e-01	3.810759e+00	1.216588e-01
9.151864e-01	3.808682e+00	1.206290e-01
9.176862e-01	3.808618e+00	1.199261e-01
9.201859e-01	3.807076e+00	1.178905e-01
9.226857e-01	3.806037e+00	1.170612e-01
9.251855e-01	3.805857e+00	1.164529e-01
9.276853e-01	3.803820e+00	1.155945e-01
9.301850e-01	3.802731e+00	1.141054e-01
9.326848e-01	3.801598e+00	1.135496e-01
9.351846e-01	3.800071e+00	1.123475e-01
9.376843e-01	3.799179e+00	1.116023e-01
9.401841e-01	3.797374e+00	1.097186e-01
9.426839e-01	3.797111e+00	1.100064e-01
9.451836e-01	3.795436e+00	1.097431e-01
9.476834e-01	3.794728e+00	1.090567e-01
9.501832e-01	3.793262e+00	1.077631e-01
9.526830e-01	3.792665e+00	1.067120e-01
9.551827e-01	3.792447e+00	1.067738e-01
9.576825e-01	3.791194e+00	1.058242e-01
9.601823e-01	3.789456e+00	1.032957e-01
9.626820e-01	3.789196e+00	1.037397e-01
9.651818e-01	3.787998e+00	1.037038e-01
9.676816e-01	3.786757e+00	1.040853e-01
9.701813e-01	3.785952e+00	1.025551e-01
9.726811e-01	3.785432e+00	1.011338e-01
9.751809e-01	3.784012e+00	9.982039e-02
9.776807e-01	3.783531e+00	9.936762e-02
9.801804e-01	3.782111e+00	9.783154e-02
9.826802e-01	3.781197e+00	9.611214e-02
9.851800e-01	3.780468e+00	9.582055e-02
9.876797e-01	3.779899e+00	9.615732e-02
9.901795e-01	3.778807e+00	9.635834e-02
9.926793e-01	3.778025e+00	9.661842e-02
9.951791e-01	3.778060e+00	9.449164e-02
9.976788e-01	3.775814e+00	9.531291e-02
1.000179e+00	3.775506e+00	9.338210e-02
1.002678e+00	3.775641e+00	9.125015e-02
1.005178e+00	3.775067e+00	9.137564e-02
1.007678e+00	3.773767e+00	9.096397e-02
1.010178e+00	3.773321e+00	8.913910e-02
1.012677e+00	3.772150e+00	8.901643e-02
1.015177e+00	3.770818e+00	9.063843e-02
1.017677e+00	3.770402e+00	9.157546e-02
1.020177e+00	3.771092e+00	8.886243e-02
1.022677e+00	3.770264e+00	8.747016e-02
1.025176e+00	3.769108e+00	8.806879e-02
1.027676e+00	3.768360e+00	8.672160e-02
1.030176e+00	3.767521e+00	8.749752e-02
1.032676e+00	3.768562e+00	7.744644e-02
1.035175e+00	3.768331e+00	7.614900e-02
1.037675e+00	3.767998e+00	7.502406e-02
1.040175e+00	3.767849e+00	7.402450e-02
1.042675e+00	3.767860e+00	7.271237e-02
1.045174e+00	3.767470e+00	7.162981e-02
1.047674e+00	3.767377e+00	7.037129e-02
1.050174e+00	3.767462e+00	6.903659e-02
1.052674e+00	3.767113e+00	6.772811e-02
1.055174e+00	3.766993e+00	6.607688e-02
1.057673e+00	3.766896e+00	6.444723e-02
1.060173e+00	3.766940e+00	6.267780e-02
1.062673e+00	3.767006e+00	6.077547e-02
1.065173e+00	3.767197e+00	5.900065e-02
1.067672e+00	3.767390e+00	5.690333e-02
1.070172e+00	3.767096e+00	5.481966e-02
1.072672e+00	3.766905e+00	5.246359e-02
1.075172e+00	3.766901e+00	4.980894e-02
1.077671e+00	3.766721e+00	4.754635e-02
1.080171e+00	3.766593e+00	4.484819e-02
1.082671e+00	3.766120e+00	4.173804e-02
1.085171e+00	3.765453e+00	3.853619e-02
1.087671e+00	3.764584e+00	3.495841e-02
1.090170e+00	3.762841e+00	3.186402e-02
1.092670e+00	3.761093e+00	2.839560e-02
1.095170e+00	3.758639e+00	2.501214e-02
1.097670e+00	3.755710e+00	2.184684e-02
1.100169e+00	3.752641e+00	1.833082e-02
1.102669e+00	3.749249e+00	1.642913e-02
1.105169e+00	3.745914e+00	1.420136e-02
1.107669e+00	3.742407e+00	1.239925e-02
1.110168e+00	3.739217e+00	1.086161e-02
1.112668e+00	3.736065e+00	8.951723e-03
1.115168e+00	3.732903e+00	8.017000e-03
1.117668e+00	3.730007e+00	6.780181e-03
1.120168e+00	3.727069e+00	5.693392e-03
1.122667e+00	3.724303e+00	5.024367e-03
1.125167e+00	3.721698e+00	4.051396e-03
1.127667e+00	3.719592e+00	3.769740e-03
1.130167e+00	3.717455e+00	3.382938e-03
1.132666e+00	3.715088e+00	3.018827e-03
1.135166e+00	3.712797e+00	3.204987e-03
1.137666e+00	3.710459e+00	3.149582e-03
1.140166e+00	3.708207e+00	3.723269e-03
1.142665e+00	3.706095e+00	3.876043e-03
1.145165e+00	3.703844e+00	3.515539e-03
1.147665e+00	3.701989e+00	3.890466e-03
1.150165e+00	3.699965e+00	3.884504e-03
1.152665e+00	3.697951e+00	3.746070e-03
1.155164e+00	3.696004e+00	3.559098e-03
1.157664e+00	3.693802e+00	3.029557e-03
1.160164e+00	3.692111e+00	3.657410e-03
1.162664e+00	3.690330e+00	3.616133e-03
1.165163e+00	3.688519e+00	2.932063e-03
1.167663e+00	3.686857e+00	2.888254e-03
1.170163e+00	3.685112e+00	2.774678e-03
1.172663e+00	3.683374e+00	3.159889e-03
1.175163e+00	3.681610e+00	3.284962e-03
1.177662e+00	3.679735e+00	3.197807e-03
1.180162e+00	3.678324e+00	3.301783e-03
1.182662e+00	3.676994e+00	3.170058e-03
1.185162e+00	3.675767e+00	3.335703e-03
1.187661e+00	3.674331e+00	3.567519e-03
1.190161e+00	3.672615e+00	3.607438e-03
1.192661e+00	3.671537e+00	3.693606e-03
1.195161e+00	3.670370e+00	3.490741e-03
1.197660e+00	3.669077e+00	3.243404e-03
1.200160e+00	3.668037e+00	0.000000e+00
1.202660e+00	3.666855e+00	0.000000e+00
1.205160e+00	3.665427e+00	0.000000e+00
1.207660e+00	3.664102e+00	0.000000e+00
1.210159e+00	3.662952e+00	0.000000e+00
1.212659e+00	3.662118e+00	0.000000e+00
1.215159e+00	3.661042e+00	0.000000e+00
1.217659e+00	3.659435e+00	0.000000e+00
1.220158e+00	3.658100e+00	0.000000e+00
1.222658e+00	3.656897e+00	0.000000e+00
1.225158e+00	3.656397e+00	0.000000e+00
1.227658e+00	3.655515e+00	0.000000e+00
1.230157e+00	3.654105e+00	0.000000e+00
1.232657e+00	3.653038e+00	0.000000e+00
1.235157e+00	3.652031e+00	0.000000e+00
1.237657e+00	3.651497e+00	0.000000e+00
1.240157e+00	3.650663e+00	0.000000e+00
1.242656e+00	3.649491e+00	0.000000e+00
1.245156e+00	3.647322e+00	0.000000e+00
1.247656e+00	3.645625e+00	0.000000e+00
1.250156e+00	3.645227e+00	0.000000e+00
1.252655e+00	3.644445e+00	0.000000e+00
1.255155e+00	3.643506e+00	0.000000e+00
1.257655e+00	3.642791e+00	0.000000e+00
1.260155e+00	3.642241e+00	0.000000e+00
1.262654e+00	3.641922e+00	0.000000e+00
1.265154e+00	3.641080e+00	0.000000e+00
1.267654e+00	3.640119e+00	0.000000e+00
1.270154e+00	3.639216e+00	0.000000e+00
1.272654e+00	3.638460e+00	0.000000e+00
1.275153e+00	3.637675e+00	0.000000e+00
1.277653e+00	3.637070e+00	0.000000e+00
1.280153e+00	3.636176e+00	0.000000e+00
1.282653e+00	3.634941e+00	0.000000e+00
1.285152e+00	3.634590e+00	0.000000e+00
1.287652e+00	3.634127e+00	0.000000e+00
1.290152e+00	3.633481e+00	0.000000e+00
1.292652e+00	3.632755e+00	0.000000e+00
1.295151e+00	3.631900e+00	0.000000e+00
1.297651e+00	3.631557e+00	0.000000e+00
1.300151e+00	3.630910e+00	0.000000e+00
1.302651e+00	3.629950e+00	0.000000e+00
1.305151e+00	3.629189e+00	0.000000e+00
1.307650e+00	3.628370e+00	0.000000e+00
1.310150e+00	3.627553e+00	0.000000e+00
1.312650e+00	3.626778e+00	0.000000e+00
1.315150e+00	3.625846e+00	0.000000e+00
1.317649e+00	3.625042e+00	0.000000e+00
1.320149e+00	3.624268e+00	0.000000e+00
1.322649e+00	3.623562e+00	0.000000e+00
1.325149e+00	3.623033e+00	0.000000e+00
1.327649e+00	3.622321e+00	0.000000e+00
1.330148e+00	3.621691e+00	0.000000e+00
1.332648e+00	3.620774e+00	0.000000e+00
1.335148e+00	3.619542e+00	0.000000e+00
1.337648e+00	3.618577e+00	0.000000e+00
1.340147e+00	3.617579e+00	0.000000e+00
1.342647e+00	3.616468e+00	0.000000e+00
1.345147e+00	3.615783e+00	0.000000e+00
1.347647e+00	3.614832e+00	0.000000e+00
1.350146e+00	3.613632e+00	0.000000e+00
1.352646e+00	3.612372e+00	0.000000e+00
1.355146e+00	3.611212e+00	0.000000e+00
1.357646e+00	3.610935e+00	0.000000e+00
1.360146e+00	3.610430e+00	0.000000e+00
1.362645e+00	3.609728e+00	0.000000e+00
1.365145e+00	3.609226e+00	0.000000e+00
1.367645e+00	3.608523e+00	0.000000e+00
1.370145e+00	3.607487e+00	0.000000e+00
1.372644e+00	3.606538e+00	0.000000e+00
1.375144e+00	3.605533e+00	0.000000e+00
1.377644e+00	3.604571e+00	0.000000e+00
1.380144e+00	3.603262e+00	0.000000e+00
1.382643e+00	3.601406e+00	0.000000e+00
1.385143e+00	3.599939e+00	0.000000e+00
1.387643e+00	3.598687e+00	0.000000e+00
1.390143e+00	3.597605e+00	0.000000e+00
1.392643e+00	3.597095e+00	0.000000e+00
1.395142e+00	3.596048e+00	0.000000e+00
1.397642e+00	3.594414e+00	0.000000e+00
