Material: fuel / biodisel / Wang-60C
Optical constants. C. C. Wang, X. C. Li, J. Y. Tan, L. H. Liu. Experimental measurement of optical constant of biodiesel by double optical pathlength transmission method, Laser Optoelectron. Prog. 52, 051206 (2015) (Numerical data kindly provided by Chengchao Wang)
Comments: Biodiesel, 60 ℃
Specs: {"n_absolute": true, "wavelength_vacuum": true, "temperature": "60.0 ℃"}
wavelength (um)	n
0.300	1.565
0.340	1.535
0.400	1.469
0.450	1.458
0.500	1.451
0.550	1.447
0.600	1.442
0.650	1.441
0.700	1.439
0.750	1.437
0.800	1.435
0.840	1.434
0.900	1.434
0.950	1.433
1.000	1.431
1.050	1.431
1.100	1.430
1.150	1.429
1.200	1.429
1.250	1.428
1.300	1.428
1.350	1.427
1.400	1.427
1.450	1.426
1.500	1.425
1.550	1.425
1.600	1.424
1.650	1.424
1.700	1.423
1.750	1.422
1.800	1.420
1.850	1.422
1.900	1.420
1.950	1.421
2.000	1.421
2.050	1.420
2.100	1.419
2.150	1.417
2.200	1.417
2.250	1.417
2.300	1.416
2.350	1.416
2.400	1.415
2.450	1.415
2.500	1.415
wavelength (um)	k
0.300	8.959E-06
0.300	8.959E-06
0.350	1.349E-05
0.380	6.591E-06
0.390	3.579E-06
0.400	2.257E-06
0.450	7.868E-07
0.480	5.393E-07
0.490	4.850E-07
0.500	4.327E-07
0.530	3.416E-07
0.550	2.911E-07
0.600	2.265E-07
0.650	2.039E-07
0.700	1.916E-07
0.750	2.121E-07
0.800	1.817E-07
0.840	1.789E-07
0.900	4.698E-07
0.950	3.349E-07
0.960	2.958E-07
0.970	2.300E-07
1.000	2.143E-07
1.010	4.292E-07
1.030	4.905E-07
1.060	3.916E-07
1.080	4.010E-07
1.100	3.495E-07
1.120	3.552E-07
1.130	5.388E-07
1.140	8.422E-07
1.150	2.003E-06
1.160	2.731E-06
1.170	4.209E-06
1.180	4.592E-06
1.190	7.381E-06
1.200	1.022E-05
1.240	1.520E-06
1.250	5.424E-07
1.300	4.010E-07
1.360	1.053E-06
1.370	1.702E-06
1.380	5.049E-06
1.390	9.278E-06
1.400	6.642E-06
1.450	4.543E-06
1.500	6.890E-07
1.510	3.141E-07
1.530	2.164E-07
1.540	2.440E-07
1.610	6.267E-07
1.630	1.980E-06
1.640	3.103E-06
1.650	5.467E-06
1.670	1.535E-05
1.680	2.448E-05
1.690	3.768E-05
1.700	6.638E-05
1.750	7.476E-05
1.800	4.689E-05
1.850	3.093E-05
1.900	2.577E-05
1.950	2.612E-05
2.000	2.558E-05
2.050	2.616E-05
2.100	2.810E-05
2.150	5.300E-05
2.200	5.293E-05
2.250	2.500E-04
2.300	5.983E-04
2.350	5.743E-04
2.400	5.493E-04
2.450	4.259E-04
2.500	3.438E-04
