Material: semiconductor alloys / AlAs-GaAs / Gadras-53
Optical constants. P. Gadras, L. Bourdon, A. Fées, K. Ben Saddik, A. Guilhem, A. Arnoult. Optical refractive index measurements of AlGaAs at high temperature for fully automated molecular beam epitaxy growth of Bragg mirrors. J. Phys. D: Appl. Phys. 58, 0022-3727 (2025) (Numerical data kindly provided by Pierre Gadras)
Comments: AlxGa1-xAs; x=0.53; 600 °C
Conditions: {"temperature": 873}
wavelength (um)	n	k
4.502291e-01	4.417807e+00	6.816832e-01
4.527289e-01	4.399878e+00	6.563936e-01
4.552287e-01	4.376531e+00	6.350248e-01
4.577284e-01	4.356357e+00	6.165146e-01
4.602282e-01	4.336370e+00	5.981968e-01
4.627280e-01	4.317491e+00	5.782160e-01
4.652278e-01	4.297482e+00	5.617906e-01
4.677275e-01	4.276951e+00	5.454520e-01
4.702273e-01	4.256703e+00	5.289547e-01
4.727271e-01	4.236109e+00	5.121782e-01
4.752268e-01	4.217423e+00	4.973939e-01
4.777266e-01	4.198277e+00	4.825308e-01
4.802264e-01	4.180120e+00	4.682394e-01
4.827261e-01	4.161588e+00	4.530586e-01
4.852259e-01	4.146168e+00	4.397036e-01
4.877257e-01	4.129156e+00	4.269662e-01
4.902255e-01	4.113735e+00	4.132081e-01
4.927252e-01	4.098969e+00	3.997861e-01
4.952250e-01	4.085239e+00	3.873820e-01
4.977248e-01	4.072779e+00	3.747408e-01
5.002245e-01	4.060066e+00	3.637292e-01
5.027243e-01	4.048054e+00	3.528472e-01
5.052241e-01	4.037837e+00	3.425565e-01
5.077238e-01	4.028139e+00	3.334372e-01
5.102236e-01	4.018129e+00	3.246226e-01
5.127234e-01	4.009794e+00	3.172486e-01
5.152232e-01	4.001391e+00	3.096508e-01
5.177229e-01	3.992306e+00	3.038964e-01
5.202227e-01	3.983814e+00	2.984575e-01
5.227225e-01	3.975780e+00	2.931748e-01
5.252222e-01	3.966934e+00	2.888374e-01
5.277220e-01	3.956867e+00	2.841443e-01
5.302218e-01	3.946393e+00	2.803288e-01
5.327215e-01	3.937736e+00	2.764159e-01
5.352213e-01	3.929265e+00	2.719253e-01
5.377211e-01	3.918478e+00	2.673236e-01
5.402209e-01	3.908909e+00	2.637108e-01
5.427206e-01	3.899896e+00	2.581506e-01
5.452204e-01	3.891671e+00	2.536264e-01
5.477202e-01	3.882701e+00	2.488924e-01
5.502199e-01	3.873921e+00	2.438981e-01
5.527197e-01	3.866308e+00	2.388021e-01
5.552195e-01	3.858602e+00	2.336674e-01
5.577193e-01	3.851067e+00	2.279956e-01
5.602190e-01	3.843123e+00	2.221079e-01
5.627188e-01	3.837020e+00	2.178389e-01
5.652186e-01	3.830422e+00	2.122687e-01
5.677183e-01	3.823889e+00	2.077175e-01
5.702181e-01	3.817796e+00	2.024456e-01
5.727179e-01	3.812862e+00	1.979725e-01
5.752176e-01	3.807206e+00	1.929412e-01
5.777174e-01	3.801785e+00	1.884359e-01
5.802172e-01	3.795854e+00	1.832943e-01
5.827170e-01	3.790891e+00	1.796150e-01
5.852167e-01	3.785778e+00	1.750735e-01
5.877165e-01	3.780889e+00	1.705661e-01
5.902163e-01	3.775806e+00	1.668616e-01
5.927160e-01	3.770436e+00	1.630610e-01
5.952158e-01	3.765256e+00	1.591141e-01
5.977156e-01	3.759925e+00	1.554883e-01
6.002153e-01	3.755000e+00	1.514226e-01
6.027151e-01	3.750091e+00	1.476078e-01
6.052149e-01	3.745358e+00	1.439690e-01
6.077147e-01	3.739569e+00	1.406893e-01
6.102144e-01	3.735264e+00	1.370720e-01
6.127142e-01	3.729978e+00	1.337136e-01
6.152140e-01	3.724665e+00	1.311698e-01
6.177137e-01	3.719265e+00	1.278853e-01
6.202135e-01	3.714041e+00	1.254530e-01
6.227133e-01	3.710696e+00	1.225056e-01
6.252130e-01	3.706344e+00	1.199746e-01
6.277128e-01	3.700987e+00	1.170882e-01
6.302126e-01	3.697272e+00	1.149485e-01
6.327124e-01	3.692166e+00	1.127515e-01
6.352121e-01	3.687579e+00	1.099122e-01
6.377119e-01	3.684168e+00	1.077063e-01
6.402117e-01	3.680463e+00	1.058797e-01
6.427114e-01	3.676166e+00	1.036305e-01
6.452112e-01	3.672699e+00	1.011783e-01
6.477110e-01	3.668384e+00	9.930069e-02
6.502108e-01	3.664925e+00	9.724010e-02
6.527105e-01	3.661774e+00	9.497920e-02
6.552103e-01	3.658917e+00	9.213216e-02
6.577101e-01	3.655279e+00	9.032940e-02
6.602098e-01	3.651618e+00	8.846596e-02
6.627096e-01	3.648914e+00	8.611429e-02
6.652094e-01	3.645904e+00	8.408148e-02
6.677091e-01	3.643063e+00	8.162715e-02
6.702089e-01	3.640237e+00	7.934893e-02
6.727087e-01	3.637720e+00	7.625101e-02
6.752085e-01	3.635521e+00	7.390096e-02
6.777082e-01	3.632656e+00	7.098336e-02
6.802080e-01	3.630884e+00	6.799368e-02
6.827078e-01	3.627902e+00	6.416433e-02
6.852075e-01	3.626115e+00	5.973109e-02
6.877073e-01	3.623916e+00	5.551735e-02
6.902071e-01	3.621550e+00	5.106840e-02
6.927068e-01	3.619149e+00	4.485234e-02
6.952066e-01	3.615956e+00	3.915228e-02
6.977064e-01	3.611872e+00	3.274449e-02
7.002062e-01	3.606816e+00	2.686307e-02
7.027059e-01	3.600696e+00	2.114423e-02
7.052057e-01	3.593507e+00	1.662046e-02
7.077055e-01	3.586637e+00	1.270776e-02
7.102052e-01	3.579506e+00	9.176826e-03
7.127050e-01	3.572739e+00	6.757903e-03
7.152048e-01	3.566060e+00	4.239731e-03
7.177045e-01	3.559356e+00	2.584191e-03
7.202043e-01	3.555017e+00	1.342778e-03
7.227041e-01	3.548941e+00	3.805354e-04
7.252039e-01	3.543575e+00	5.329446e-14
7.277036e-01	3.538390e+00	2.222552e-14
7.302034e-01	3.533099e+00	0.000000e+00
7.327032e-01	3.528037e+00	0.000000e+00
7.352029e-01	3.523952e+00	0.000000e+00
7.377027e-01	3.519294e+00	0.000000e+00
7.402025e-01	3.515724e+00	0.000000e+00
7.427023e-01	3.511104e+00	0.000000e+00
7.452020e-01	3.507052e+00	0.000000e+00
7.477018e-01	3.502951e+00	0.000000e+00
7.502016e-01	3.499289e+00	0.000000e+00
7.527013e-01	3.495344e+00	0.000000e+00
7.552011e-01	3.491535e+00	0.000000e+00
7.577009e-01	3.488483e+00	0.000000e+00
7.602006e-01	3.484815e+00	0.000000e+00
7.627004e-01	3.482113e+00	0.000000e+00
7.652002e-01	3.478783e+00	0.000000e+00
7.677000e-01	3.475505e+00	0.000000e+00
7.701997e-01	3.472624e+00	0.000000e+00
7.726995e-01	3.469925e+00	0.000000e+00
7.751993e-01	3.466245e+00	0.000000e+00
7.776990e-01	3.463650e+00	0.000000e+00
7.801988e-01	3.460867e+00	0.000000e+00
7.826986e-01	3.458326e+00	0.000000e+00
7.851983e-01	3.455164e+00	0.000000e+00
7.876981e-01	3.452118e+00	0.000000e+00
7.901979e-01	3.449408e+00	0.000000e+00
7.926977e-01	3.446194e+00	0.000000e+00
7.951974e-01	3.444357e+00	0.000000e+00
7.976972e-01	3.441615e+00	0.000000e+00
8.001970e-01	3.439400e+00	0.000000e+00
8.026967e-01	3.436715e+00	0.000000e+00
8.051965e-01	3.434108e+00	0.000000e+00
8.076963e-01	3.432489e+00	0.000000e+00
8.101961e-01	3.429970e+00	0.000000e+00
8.126958e-01	3.427286e+00	0.000000e+00
8.151956e-01	3.425655e+00	0.000000e+00
8.176954e-01	3.423525e+00	0.000000e+00
8.201951e-01	3.421643e+00	0.000000e+00
8.226949e-01	3.418823e+00	0.000000e+00
8.251947e-01	3.416606e+00	0.000000e+00
8.276944e-01	3.415065e+00	0.000000e+00
8.301942e-01	3.413019e+00	0.000000e+00
8.326940e-01	3.410643e+00	0.000000e+00
8.351938e-01	3.409124e+00	0.000000e+00
8.376935e-01	3.406297e+00	0.000000e+00
8.401933e-01	3.405325e+00	0.000000e+00
8.426931e-01	3.403135e+00	0.000000e+00
8.451928e-01	3.401586e+00	0.000000e+00
8.476926e-01	3.399445e+00	0.000000e+00
8.501924e-01	3.396429e+00	0.000000e+00
8.526921e-01	3.394832e+00	0.000000e+00
8.551919e-01	3.392512e+00	0.000000e+00
8.576917e-01	3.392123e+00	0.000000e+00
8.601915e-01	3.390156e+00	0.000000e+00
8.626912e-01	3.388523e+00	0.000000e+00
8.651910e-01	3.386585e+00	0.000000e+00
8.676908e-01	3.385695e+00	0.000000e+00
8.701905e-01	3.383465e+00	0.000000e+00
8.726903e-01	3.381948e+00	0.000000e+00
8.751901e-01	3.381504e+00	0.000000e+00
8.776898e-01	3.379555e+00	0.000000e+00
8.801896e-01	3.378859e+00	0.000000e+00
8.826894e-01	3.377229e+00	0.000000e+00
8.851892e-01	3.375924e+00	0.000000e+00
8.876889e-01	3.374240e+00	0.000000e+00
8.901887e-01	3.371981e+00	0.000000e+00
8.926885e-01	3.370869e+00	0.000000e+00
8.951882e-01	3.370208e+00	0.000000e+00
8.976880e-01	3.368776e+00	0.000000e+00
9.001878e-01	3.367045e+00	0.000000e+00
9.026876e-01	3.365195e+00	0.000000e+00
9.051873e-01	3.363089e+00	0.000000e+00
9.076871e-01	3.361489e+00	0.000000e+00
9.101869e-01	3.360908e+00	0.000000e+00
9.126866e-01	3.358876e+00	0.000000e+00
9.151864e-01	3.358308e+00	0.000000e+00
9.176862e-01	3.357215e+00	0.000000e+00
9.201859e-01	3.356121e+00	0.000000e+00
9.226857e-01	3.352955e+00	0.000000e+00
9.251855e-01	3.355027e+00	0.000000e+00
9.276853e-01	3.353007e+00	0.000000e+00
9.301850e-01	3.351327e+00	0.000000e+00
9.326848e-01	3.350150e+00	0.000000e+00
9.351846e-01	3.348850e+00	0.000000e+00
9.376843e-01	3.347888e+00	0.000000e+00
9.401841e-01	3.347540e+00	0.000000e+00
9.426839e-01	3.348956e+00	0.000000e+00
9.451836e-01	3.348506e+00	0.000000e+00
9.476834e-01	3.345905e+00	0.000000e+00
9.501832e-01	3.343761e+00	0.000000e+00
9.526830e-01	3.341157e+00	0.000000e+00
9.551827e-01	3.340501e+00	0.000000e+00
9.576825e-01	3.342767e+00	0.000000e+00
9.601823e-01	3.342912e+00	0.000000e+00
9.626820e-01	3.340498e+00	0.000000e+00
9.651818e-01	3.340801e+00	0.000000e+00
9.676816e-01	3.340076e+00	0.000000e+00
9.701813e-01	3.335685e+00	0.000000e+00
9.726811e-01	3.335376e+00	0.000000e+00
9.751809e-01	3.334803e+00	0.000000e+00
9.776807e-01	3.335572e+00	0.000000e+00
9.801804e-01	3.333083e+00	0.000000e+00
9.826802e-01	3.329896e+00	0.000000e+00
9.851800e-01	3.327741e+00	0.000000e+00
9.876797e-01	3.329612e+00	0.000000e+00
9.901795e-01	3.327983e+00	0.000000e+00
9.926793e-01	3.325184e+00	0.000000e+00
9.951791e-01	3.326744e+00	0.000000e+00
9.976788e-01	3.325903e+00	0.000000e+00
1.000179e+00	3.324575e+00	0.000000e+00
1.002678e+00	3.324634e+00	0.000000e+00
1.005178e+00	3.321872e+00	0.000000e+00
1.007678e+00	3.322241e+00	0.000000e+00
1.010178e+00	3.325517e+00	0.000000e+00
1.012677e+00	3.323515e+00	0.000000e+00
1.015177e+00	3.325233e+00	0.000000e+00
1.017677e+00	3.323699e+00	0.000000e+00
1.020177e+00	3.321702e+00	0.000000e+00
1.022677e+00	3.318578e+00	0.000000e+00
1.025176e+00	3.321927e+00	0.000000e+00
1.027676e+00	3.318460e+00	0.000000e+00
1.030176e+00	3.311194e+00	0.000000e+00
1.032676e+00	3.310061e+00	0.000000e+00
1.035175e+00	3.309320e+00	0.000000e+00
1.037675e+00	3.308992e+00	0.000000e+00
1.040175e+00	3.308218e+00	0.000000e+00
1.042675e+00	3.307361e+00	0.000000e+00
1.045174e+00	3.306405e+00	0.000000e+00
1.047674e+00	3.305656e+00	0.000000e+00
1.050174e+00	3.305063e+00	0.000000e+00
1.052674e+00	3.304358e+00	0.000000e+00
1.055174e+00	3.303784e+00	0.000000e+00
1.057673e+00	3.303097e+00	0.000000e+00
1.060173e+00	3.302401e+00	0.000000e+00
1.062673e+00	3.301601e+00	0.000000e+00
1.065173e+00	3.301120e+00	0.000000e+00
1.067672e+00	3.300519e+00	0.000000e+00
1.070172e+00	3.299321e+00	0.000000e+00
1.072672e+00	3.298337e+00	0.000000e+00
1.075172e+00	3.297634e+00	0.000000e+00
1.077671e+00	3.296575e+00	0.000000e+00
1.080171e+00	3.295393e+00	0.000000e+00
1.082671e+00	3.293974e+00	0.000000e+00
1.085171e+00	3.292944e+00	0.000000e+00
1.087671e+00	3.292021e+00	0.000000e+00
1.090170e+00	3.291259e+00	0.000000e+00
1.092670e+00	3.290701e+00	0.000000e+00
1.095170e+00	3.290578e+00	0.000000e+00
1.097670e+00	3.290101e+00	0.000000e+00
1.100169e+00	3.289412e+00	0.000000e+00
1.102669e+00	3.289379e+00	0.000000e+00
1.105169e+00	3.289359e+00	0.000000e+00
1.107669e+00	3.289463e+00	0.000000e+00
1.110168e+00	3.289338e+00	0.000000e+00
1.112668e+00	3.288976e+00	0.000000e+00
1.115168e+00	3.288697e+00	0.000000e+00
1.117668e+00	3.288204e+00	0.000000e+00
1.120168e+00	3.287203e+00	0.000000e+00
1.122667e+00	3.286752e+00	0.000000e+00
1.125167e+00	3.286390e+00	0.000000e+00
1.127667e+00	3.285278e+00	0.000000e+00
1.130167e+00	3.283879e+00	0.000000e+00
1.132666e+00	3.282019e+00	0.000000e+00
1.135166e+00	3.279703e+00	0.000000e+00
1.137666e+00	3.277226e+00	0.000000e+00
1.140166e+00	3.274707e+00	0.000000e+00
1.142665e+00	3.272248e+00	0.000000e+00
1.145165e+00	3.269543e+00	0.000000e+00
1.147665e+00	3.267795e+00	0.000000e+00
1.150165e+00	3.266236e+00	0.000000e+00
1.152665e+00	3.265315e+00	0.000000e+00
1.155164e+00	3.265038e+00	0.000000e+00
1.157664e+00	3.264917e+00	0.000000e+00
1.160164e+00	3.264449e+00	0.000000e+00
1.162664e+00	3.264309e+00	0.000000e+00
1.165163e+00	3.264748e+00	0.000000e+00
1.167663e+00	3.265084e+00	0.000000e+00
1.170163e+00	3.265248e+00	0.000000e+00
1.172663e+00	3.265443e+00	0.000000e+00
1.175163e+00	3.265384e+00	0.000000e+00
1.177662e+00	3.265007e+00	0.000000e+00
1.180162e+00	3.264598e+00	0.000000e+00
1.182662e+00	3.264315e+00	0.000000e+00
1.185162e+00	3.264523e+00	0.000000e+00
1.187661e+00	3.264558e+00	0.000000e+00
1.190161e+00	3.264362e+00	0.000000e+00
1.192661e+00	3.263831e+00	0.000000e+00
1.195161e+00	3.263003e+00	0.000000e+00
1.197660e+00	3.261831e+00	0.000000e+00
1.200160e+00	3.261564e+00	0.000000e+00
1.202660e+00	3.261354e+00	0.000000e+00
1.205160e+00	3.260557e+00	0.000000e+00
1.207660e+00	3.260122e+00	0.000000e+00
1.210159e+00	3.260135e+00	0.000000e+00
1.212659e+00	3.259738e+00	0.000000e+00
1.215159e+00	3.259167e+00	0.000000e+00
1.217659e+00	3.258833e+00	0.000000e+00
1.220158e+00	3.258341e+00	0.000000e+00
1.222658e+00	3.257755e+00	0.000000e+00
1.225158e+00	3.256886e+00	0.000000e+00
1.227658e+00	3.256106e+00	0.000000e+00
1.230157e+00	3.255577e+00	0.000000e+00
1.232657e+00	3.255386e+00	0.000000e+00
1.235157e+00	3.255164e+00	0.000000e+00
1.237657e+00	3.254631e+00	0.000000e+00
1.240157e+00	3.253857e+00	0.000000e+00
1.242656e+00	3.252849e+00	0.000000e+00
1.245156e+00	3.252414e+00	0.000000e+00
1.247656e+00	3.251991e+00	0.000000e+00
1.250156e+00	3.251646e+00	0.000000e+00
1.252655e+00	3.251207e+00	0.000000e+00
1.255155e+00	3.250802e+00	0.000000e+00
1.257655e+00	3.250956e+00	0.000000e+00
1.260155e+00	3.250750e+00	0.000000e+00
1.262654e+00	3.250182e+00	0.000000e+00
1.265154e+00	3.249272e+00	0.000000e+00
1.267654e+00	3.248299e+00	0.000000e+00
1.270154e+00	3.247415e+00	0.000000e+00
1.272654e+00	3.246207e+00	0.000000e+00
1.275153e+00	3.244850e+00	0.000000e+00
1.277653e+00	3.245223e+00	0.000000e+00
1.280153e+00	3.245134e+00	0.000000e+00
1.282653e+00	3.244577e+00	0.000000e+00
1.285152e+00	3.244404e+00	0.000000e+00
1.287652e+00	3.243927e+00	0.000000e+00
1.290152e+00	3.242986e+00	0.000000e+00
1.292652e+00	3.243247e+00	0.000000e+00
1.295151e+00	3.243812e+00	0.000000e+00
1.297651e+00	3.241917e+00	0.000000e+00
1.300151e+00	3.240298e+00	0.000000e+00
1.302651e+00	3.239086e+00	0.000000e+00
1.305151e+00	3.239285e+00	0.000000e+00
1.307650e+00	3.239488e+00	0.000000e+00
1.310150e+00	3.239447e+00	0.000000e+00
1.312650e+00	3.239370e+00	0.000000e+00
1.315150e+00	3.238910e+00	0.000000e+00
1.317649e+00	3.236482e+00	0.000000e+00
1.320149e+00	3.235171e+00	0.000000e+00
1.322649e+00	3.235078e+00	0.000000e+00
1.325149e+00	3.234483e+00	0.000000e+00
1.327649e+00	3.233231e+00	0.000000e+00
1.330148e+00	3.230920e+00	0.000000e+00
1.332648e+00	3.230482e+00	0.000000e+00
1.335148e+00	3.230377e+00	0.000000e+00
1.337648e+00	3.228963e+00	0.000000e+00
1.340147e+00	3.227634e+00	0.000000e+00
1.342647e+00	3.226356e+00	0.000000e+00
1.345147e+00	3.226472e+00	0.000000e+00
1.347647e+00	3.226383e+00	0.000000e+00
1.350146e+00	3.225923e+00	0.000000e+00
1.352646e+00	3.224675e+00	0.000000e+00
1.355146e+00	3.223059e+00	0.000000e+00
1.357646e+00	3.221917e+00	0.000000e+00
1.360146e+00	3.221074e+00	0.000000e+00
1.362645e+00	3.220252e+00	0.000000e+00
1.365145e+00	3.218824e+00	0.000000e+00
1.367645e+00	3.217489e+00	0.000000e+00
1.370145e+00	3.216320e+00	0.000000e+00
1.372644e+00	3.216109e+00	0.000000e+00
1.375144e+00	3.214376e+00	0.000000e+00
1.377644e+00	3.208535e+00	0.000000e+00
1.380144e+00	3.204370e+00	0.000000e+00
1.382643e+00	3.200792e+00	0.000000e+00
1.385143e+00	3.199296e+00	0.000000e+00
1.387643e+00	3.198560e+00	0.000000e+00
1.390143e+00	3.198468e+00	0.000000e+00
1.392643e+00	3.197132e+00	0.000000e+00
1.395142e+00	3.195705e+00	0.000000e+00
1.397642e+00	3.194280e+00	0.000000e+00
