Material: semiconductor alloys / AlAs-GaAs / Gadras-90
Optical constants. P. Gadras, L. Bourdon, A. Fées, K. Ben Saddik, A. Guilhem, A. Arnoult. Optical refractive index measurements of AlGaAs at high temperature for fully automated molecular beam epitaxy growth of Bragg mirrors. J. Phys. D: Appl. Phys. 58, 0022-3727 (2025) (Numerical data kindly provided by Pierre Gadras)
Comments: AlxGa1-xAs; x=0.92; 600 °C
Conditions: {"temperature": 873}
wavelength (um)	n	k
4.502291e-01	3.899839e+00	2.165856e-01
4.527289e-01	3.885395e+00	2.088753e-01
4.552287e-01	3.871407e+00	2.019013e-01
4.577284e-01	3.857679e+00	1.943849e-01
4.602282e-01	3.843929e+00	1.871811e-01
4.627280e-01	3.830640e+00	1.801745e-01
4.652278e-01	3.817640e+00	1.731786e-01
4.677275e-01	3.804895e+00	1.666706e-01
4.702273e-01	3.792139e+00	1.602285e-01
4.727271e-01	3.779995e+00	1.538253e-01
4.752268e-01	3.768333e+00	1.473777e-01
4.777266e-01	3.757088e+00	1.413419e-01
4.802264e-01	3.746383e+00	1.356690e-01
4.827261e-01	3.736000e+00	1.305842e-01
4.852259e-01	3.725750e+00	1.255051e-01
4.877257e-01	3.715690e+00	1.207013e-01
4.902255e-01	3.705565e+00	1.157641e-01
4.927252e-01	3.695952e+00	1.109197e-01
4.952250e-01	3.686522e+00	1.057800e-01
4.977248e-01	3.677495e+00	1.008883e-01
5.002245e-01	3.668494e+00	9.546761e-02
5.027243e-01	3.659832e+00	9.036085e-02
5.052241e-01	3.651281e+00	8.497966e-02
5.077238e-01	3.642527e+00	7.955243e-02
5.102236e-01	3.633760e+00	7.392529e-02
5.127234e-01	3.624891e+00	6.819156e-02
5.152232e-01	3.615648e+00	6.222590e-02
5.177229e-01	3.606261e+00	5.627347e-02
5.202227e-01	3.597002e+00	5.055118e-02
5.227225e-01	3.587490e+00	4.545040e-02
5.252222e-01	3.577908e+00	4.097088e-02
5.277220e-01	3.568120e+00	3.711750e-02
5.302218e-01	3.557973e+00	3.370363e-02
5.327215e-01	3.547976e+00	3.068212e-02
5.352213e-01	3.538238e+00	2.770868e-02
5.377211e-01	3.528746e+00	2.510912e-02
5.402209e-01	3.519584e+00	2.304346e-02
5.427206e-01	3.510671e+00	2.101081e-02
5.452204e-01	3.501842e+00	1.947194e-02
5.477202e-01	3.493272e+00	1.810651e-02
5.502199e-01	3.485048e+00	1.667225e-02
5.527197e-01	3.477168e+00	1.533881e-02
5.552195e-01	3.469672e+00	1.446013e-02
5.577193e-01	3.462465e+00	1.369318e-02
5.602190e-01	3.455363e+00	1.320925e-02
5.627188e-01	3.448306e+00	1.265432e-02
5.652186e-01	3.441448e+00	1.203262e-02
5.677183e-01	3.434833e+00	1.130471e-02
5.702181e-01	3.428595e+00	1.038325e-02
5.727179e-01	3.422689e+00	9.379282e-03
5.752176e-01	3.417190e+00	8.621020e-03
5.777174e-01	3.411845e+00	8.181753e-03
5.802172e-01	3.406618e+00	7.646118e-03
5.827170e-01	3.401405e+00	7.345419e-03
5.852167e-01	3.396114e+00	7.207883e-03
5.877165e-01	3.390805e+00	6.970468e-03
5.902163e-01	3.385539e+00	6.398817e-03
5.927160e-01	3.380139e+00	5.996224e-03
5.952158e-01	3.375160e+00	5.364887e-03
5.977156e-01	3.370213e+00	4.810566e-03
6.002153e-01	3.365433e+00	4.339018e-03
6.027151e-01	3.360740e+00	3.919473e-03
6.052149e-01	3.356025e+00	3.805550e-03
6.077147e-01	3.351397e+00	3.422294e-03
6.102144e-01	3.346735e+00	3.376634e-03
6.127142e-01	3.342063e+00	3.401262e-03
6.152140e-01	3.337722e+00	2.911773e-03
6.177137e-01	3.333338e+00	2.627296e-03
6.202135e-01	3.329320e+00	2.238796e-03
6.227133e-01	3.325037e+00	2.152728e-03
6.252130e-01	3.321030e+00	2.260918e-03
6.277128e-01	3.317315e+00	2.209213e-03
6.302126e-01	3.313924e+00	2.332519e-03
6.327124e-01	3.310311e+00	2.575043e-03
6.352121e-01	3.306665e+00	2.795047e-03
6.377119e-01	3.303176e+00	3.137026e-03
6.402117e-01	3.299360e+00	3.123179e-03
6.427114e-01	3.295824e+00	2.916198e-03
6.452112e-01	3.292263e+00	2.718215e-03
6.477110e-01	3.289212e+00	2.566558e-03
6.502108e-01	3.286067e+00	2.168866e-03
6.527105e-01	3.283294e+00	1.938651e-03
6.552103e-01	3.280440e+00	1.407729e-03
6.577101e-01	3.277858e+00	1.485750e-03
6.602098e-01	3.275212e+00	1.532788e-03
6.627096e-01	3.272770e+00	1.253742e-03
6.652094e-01	3.270205e+00	1.482049e-03
6.677091e-01	3.267683e+00	1.369359e-03
6.702089e-01	3.264787e+00	1.666604e-03
6.727087e-01	3.262093e+00	1.877838e-03
6.752085e-01	3.259355e+00	1.884764e-03
6.777082e-01	3.256585e+00	1.817836e-03
6.802080e-01	3.253824e+00	1.843014e-03
6.827078e-01	3.251169e+00	1.601723e-03
6.852075e-01	3.248241e+00	1.407186e-03
6.877073e-01	3.245504e+00	1.089018e-03
6.902071e-01	3.243130e+00	6.410924e-04
6.927068e-01	3.240728e+00	6.837583e-04
6.952066e-01	3.238516e+00	5.501200e-04
6.977064e-01	3.235935e+00	2.659355e-04
7.002062e-01	3.233388e+00	1.339568e-04
7.027059e-01	3.231113e+00	2.546789e-04
7.052057e-01	3.228605e+00	1.173100e-04
7.077055e-01	3.226114e+00	3.253116e-04
7.102052e-01	3.223622e+00	8.412522e-07
7.127050e-01	3.221356e+00	9.168834e-11
7.152048e-01	3.218775e+00	5.213660e-06
7.177045e-01	3.216550e+00	3.567484e-05
7.202043e-01	3.214260e+00	2.999947e-27
7.227041e-01	3.211931e+00	1.555138e-16
7.252039e-01	3.209666e+00	1.056769e-18
7.277036e-01	3.207498e+00	2.616865e-16
7.302034e-01	3.205740e+00	2.288527e-16
7.327032e-01	3.203918e+00	1.813982e-20
7.352029e-01	3.201733e+00	2.748794e-15
7.377027e-01	3.200305e+00	1.648952e-05
7.402025e-01	3.198581e+00	9.037281e-05
7.427023e-01	3.196680e+00	2.573831e-04
7.452020e-01	3.194965e+00	5.451190e-04
7.477018e-01	3.192877e+00	1.002387e-03
7.502016e-01	3.191243e+00	1.255007e-03
7.527013e-01	3.189709e+00	1.466618e-03
7.552011e-01	3.187681e+00	1.693285e-03
7.577009e-01	3.186447e+00	1.895597e-03
7.602006e-01	3.184297e+00	1.769753e-03
7.627004e-01	3.182735e+00	1.811542e-03
7.652002e-01	3.181096e+00	1.851678e-03
7.677000e-01	3.179666e+00	1.791963e-03
7.701997e-01	3.177804e+00	1.433965e-03
7.726995e-01	3.176334e+00	1.176369e-03
7.751993e-01	3.175476e+00	1.009082e-03
7.776990e-01	3.174033e+00	7.011451e-04
7.801988e-01	3.172775e+00	5.439527e-04
7.826986e-01	3.171687e+00	2.277233e-04
7.851983e-01	3.170763e+00	3.261629e-04
7.876981e-01	3.169808e+00	5.561669e-05
7.901979e-01	3.168887e+00	4.008585e-04
7.926977e-01	3.167978e+00	6.689724e-04
7.951974e-01	3.166688e+00	5.078219e-04
7.976972e-01	3.165731e+00	1.044972e-03
8.001970e-01	3.164738e+00	3.271725e-04
8.026967e-01	3.163677e+00	5.366635e-04
8.051965e-01	3.162427e+00	1.252326e-03
8.076963e-01	3.161332e+00	1.255133e-03
8.101961e-01	3.160000e+00	1.342027e-03
8.126958e-01	3.158623e+00	1.621238e-03
8.151956e-01	3.157476e+00	1.798763e-03
8.176954e-01	3.156636e+00	1.553488e-03
8.201951e-01	3.155132e+00	1.827822e-03
8.226949e-01	3.153447e+00	1.804181e-03
8.251947e-01	3.152338e+00	1.710344e-03
8.276944e-01	3.151035e+00	1.368879e-03
8.301942e-01	3.149516e+00	1.288744e-03
8.326940e-01	3.148568e+00	1.448289e-03
8.351938e-01	3.147136e+00	1.181688e-03
8.376935e-01	3.146570e+00	9.156627e-04
8.401933e-01	3.144847e+00	1.184111e-03
8.426931e-01	3.143613e+00	1.012610e-03
8.451928e-01	3.142859e+00	9.704056e-04
8.476926e-01	3.141515e+00	1.020392e-03
8.501924e-01	3.140418e+00	6.494886e-04
8.526921e-01	3.138724e+00	8.364653e-04
8.551919e-01	3.138194e+00	1.016735e-03
8.576917e-01	3.137344e+00	1.486167e-03
8.601915e-01	3.135778e+00	9.617500e-04
8.626912e-01	3.134573e+00	7.342202e-04
8.651910e-01	3.133404e+00	1.147578e-03
8.676908e-01	3.132508e+00	1.221029e-03
8.701905e-01	3.131077e+00	2.363367e-03
8.726903e-01	3.129833e+00	1.540683e-03
8.751901e-01	3.128758e+00	1.973194e-03
8.776898e-01	3.127454e+00	1.644344e-03
8.801896e-01	3.126954e+00	1.890710e-03
8.826894e-01	3.125551e+00	2.176170e-03
8.851892e-01	3.124494e+00	1.453873e-03
8.876889e-01	3.123581e+00	1.541653e-03
8.901887e-01	3.122030e+00	2.006359e-03
8.926885e-01	3.120060e+00	2.610819e-03
8.951882e-01	3.119100e+00	2.720321e-03
8.976880e-01	3.117936e+00	2.517357e-03
9.001878e-01	3.118326e+00	1.702015e-03
9.026876e-01	3.116043e+00	3.295973e-03
9.051873e-01	3.114958e+00	3.608858e-03
9.076871e-01	3.114733e+00	3.080770e-03
9.101869e-01	3.113937e+00	2.730163e-03
9.126866e-01	3.111729e+00	3.150641e-03
9.151864e-01	3.112357e+00	2.958974e-03
9.176862e-01	3.111015e+00	3.466259e-03
9.201859e-01	3.110649e+00	3.469653e-03
9.226857e-01	3.109699e+00	3.747173e-03
9.251855e-01	3.109253e+00	4.017394e-03
9.276853e-01	3.107911e+00	4.154589e-03
9.301850e-01	3.107705e+00	4.130888e-03
9.326848e-01	3.106743e+00	4.843480e-03
9.351846e-01	3.106573e+00	4.911985e-03
9.376843e-01	3.104319e+00	5.945697e-03
9.401841e-01	3.104292e+00	6.106829e-03
9.426839e-01	3.103072e+00	6.658758e-03
9.451836e-01	3.101994e+00	6.879608e-03
9.476834e-01	3.101915e+00	6.954624e-03
9.501832e-01	3.101166e+00	7.738984e-03
9.526830e-01	3.100161e+00	7.655197e-03
9.551827e-01	3.099371e+00	7.853116e-03
9.576825e-01	3.098316e+00	8.126881e-03
9.601823e-01	3.098149e+00	8.317597e-03
9.626820e-01	3.097350e+00	9.214300e-03
9.651818e-01	3.096123e+00	8.934053e-03
9.676816e-01	3.094925e+00	8.717077e-03
9.701813e-01	3.093448e+00	8.426319e-03
9.726811e-01	3.093621e+00	9.264092e-03
9.751809e-01	3.092359e+00	8.211423e-03
9.776807e-01	3.092415e+00	9.325209e-03
9.801804e-01	3.090906e+00	7.805783e-03
9.826802e-01	3.090820e+00	8.316070e-03
9.851800e-01	3.090265e+00	8.330377e-03
9.876797e-01	3.090784e+00	9.076985e-03
9.901795e-01	3.088293e+00	8.333654e-03
9.926793e-01	3.087690e+00	7.971537e-03
9.951791e-01	3.086880e+00	8.285535e-03
9.976788e-01	3.087080e+00	7.886919e-03
1.000179e+00	3.086659e+00	7.967775e-03
1.002678e+00	3.086490e+00	9.471196e-03
1.005178e+00	3.085321e+00	8.158434e-03
1.007678e+00	3.084211e+00	7.606833e-03
1.010178e+00	3.088692e+00	8.061665e-03
1.012677e+00	3.088289e+00	8.135306e-03
1.015177e+00	3.087898e+00	8.400712e-03
1.017677e+00	3.087804e+00	8.479199e-03
1.020177e+00	3.087159e+00	8.571718e-03
1.022677e+00	3.086506e+00	8.395759e-03
1.025176e+00	3.086048e+00	8.022623e-03
1.027676e+00	3.085464e+00	8.188965e-03
1.030176e+00	3.084918e+00	8.249178e-03
1.032676e+00	3.084713e+00	8.293750e-03
1.035175e+00	3.084508e+00	8.360911e-03
1.037675e+00	3.084202e+00	8.514458e-03
1.040175e+00	3.083683e+00	8.652991e-03
1.042675e+00	3.083155e+00	8.575953e-03
1.045174e+00	3.082404e+00	8.685195e-03
1.047674e+00	3.081848e+00	8.624143e-03
1.050174e+00	3.081435e+00	8.451818e-03
1.052674e+00	3.080633e+00	8.529125e-03
1.055174e+00	3.079941e+00	8.451491e-03
1.057673e+00	3.079134e+00	8.584528e-03
1.060173e+00	3.078604e+00	8.589553e-03
1.062673e+00	3.078279e+00	8.511434e-03
1.065173e+00	3.077744e+00	8.257623e-03
1.067672e+00	3.077201e+00	7.767118e-03
1.070172e+00	3.076896e+00	7.523114e-03
1.072672e+00	3.076313e+00	7.167250e-03
1.075172e+00	3.075536e+00	6.649548e-03
1.077671e+00	3.074676e+00	6.563828e-03
1.080171e+00	3.073778e+00	6.301418e-03
1.082671e+00	3.072779e+00	6.042498e-03
1.085171e+00	3.071994e+00	5.877775e-03
1.087671e+00	3.071236e+00	5.682117e-03
1.090170e+00	3.070710e+00	5.779081e-03
1.092670e+00	3.070341e+00	5.721473e-03
1.095170e+00	3.070177e+00	5.844611e-03
1.097670e+00	3.070130e+00	6.022418e-03
1.100169e+00	3.070182e+00	6.113443e-03
1.102669e+00	3.069687e+00	6.263851e-03
1.105169e+00	3.069414e+00	6.279782e-03
1.107669e+00	3.069698e+00	6.474454e-03
1.110168e+00	3.069287e+00	6.239198e-03
1.112668e+00	3.068500e+00	5.618538e-03
1.115168e+00	3.068021e+00	5.708632e-03
1.117668e+00	3.067698e+00	5.646962e-03
1.120168e+00	3.067494e+00	5.553761e-03
1.122667e+00	3.067037e+00	5.670144e-03
1.125167e+00	3.066464e+00	5.688872e-03
1.127667e+00	3.065674e+00	5.685764e-03
1.130167e+00	3.064488e+00	5.706004e-03
1.132666e+00	3.062705e+00	5.806144e-03
1.135166e+00	3.060318e+00	5.923928e-03
1.137666e+00	3.057663e+00	5.847621e-03
1.140166e+00	3.054774e+00	5.815497e-03
1.142665e+00	3.052056e+00	5.489632e-03
1.145165e+00	3.049170e+00	4.853877e-03
1.147665e+00	3.047504e+00	4.633071e-03
1.150165e+00	3.045999e+00	4.415706e-03
1.152665e+00	3.045054e+00	4.543086e-03
1.155164e+00	3.044397e+00	4.429970e-03
1.157664e+00	3.043698e+00	4.064354e-03
1.160164e+00	3.043855e+00	4.444306e-03
1.162664e+00	3.043883e+00	4.664493e-03
1.165163e+00	3.043704e+00	4.780650e-03
1.167663e+00	3.043550e+00	4.968840e-03
1.170163e+00	3.043358e+00	5.054119e-03
1.172663e+00	3.043510e+00	5.246628e-03
1.175163e+00	3.043528e+00	5.268543e-03
1.177662e+00	3.043324e+00	5.129428e-03
1.180162e+00	3.042994e+00	5.130960e-03
1.182662e+00	3.042709e+00	5.092003e-03
1.185162e+00	3.042634e+00	5.336968e-03
1.187661e+00	3.042498e+00	5.553013e-03
1.190161e+00	3.042251e+00	5.656713e-03
1.192661e+00	3.041945e+00	6.033307e-03
1.195161e+00	3.041490e+00	6.286467e-03
1.197660e+00	3.040863e+00	6.492014e-03
1.200160e+00	3.040487e+00	0.000000e+00
1.202660e+00	3.040014e+00	0.000000e+00
1.205160e+00	3.039338e+00	0.000000e+00
1.207660e+00	3.038703e+00	0.000000e+00
1.210159e+00	3.038119e+00	0.000000e+00
1.212659e+00	3.037718e+00	0.000000e+00
1.215159e+00	3.037238e+00	0.000000e+00
1.217659e+00	3.036845e+00	0.000000e+00
1.220158e+00	3.036579e+00	0.000000e+00
1.222658e+00	3.036306e+00	0.000000e+00
1.225158e+00	3.036031e+00	0.000000e+00
1.227658e+00	3.035591e+00	0.000000e+00
1.230157e+00	3.034900e+00	0.000000e+00
1.232657e+00	3.034342e+00	0.000000e+00
1.235157e+00	3.033800e+00	0.000000e+00
1.237657e+00	3.033449e+00	0.000000e+00
1.240157e+00	3.032886e+00	0.000000e+00
1.242656e+00	3.032122e+00	0.000000e+00
1.245156e+00	3.031874e+00	0.000000e+00
1.247656e+00	3.031346e+00	0.000000e+00
1.250156e+00	3.030403e+00	0.000000e+00
1.252655e+00	3.029809e+00	0.000000e+00
1.255155e+00	3.029300e+00	0.000000e+00
1.257655e+00	3.028826e+00	0.000000e+00
1.260155e+00	3.028317e+00	0.000000e+00
1.262654e+00	3.027809e+00	0.000000e+00
1.265154e+00	3.027287e+00	0.000000e+00
1.267654e+00	3.026652e+00	0.000000e+00
1.270154e+00	3.025796e+00	0.000000e+00
1.272654e+00	3.025071e+00	0.000000e+00
1.275153e+00	3.024262e+00	0.000000e+00
1.277653e+00	3.023254e+00	0.000000e+00
1.280153e+00	3.022337e+00	0.000000e+00
1.282653e+00	3.021469e+00	0.000000e+00
1.285152e+00	3.020494e+00	0.000000e+00
1.287652e+00	3.019378e+00	0.000000e+00
1.290152e+00	3.018437e+00	0.000000e+00
1.292652e+00	3.017842e+00	0.000000e+00
1.295151e+00	3.017212e+00	0.000000e+00
1.297651e+00	3.016163e+00	0.000000e+00
1.300151e+00	3.015152e+00	0.000000e+00
