Material: semiconductor alloys / AlAs-GaAs / Gadras-100
Optical constants. P. Gadras, L. Bourdon, A. Fées, K. Ben Saddik, A. Guilhem, A. Arnoult. Optical refractive index measurements of AlGaAs at high temperature for fully automated molecular beam epitaxy growth of Bragg mirrors. J. Phys. D: Appl. Phys. 58, 0022-3727 (2025) (Numerical data kindly provided by Pierre Gadras)
Comments: AlxGa1-xAs; x=1.0; 600 °C
Conditions: {"temperature": 873}
wavelength (um)	n	k
4.502291e-01	3.722276e+00	1.316411e-01
4.527289e-01	3.710492e+00	1.261853e-01
4.552287e-01	3.698726e+00	1.210439e-01
4.577284e-01	3.686973e+00	1.160270e-01
4.602282e-01	3.675406e+00	1.106307e-01
4.627280e-01	3.664294e+00	1.046267e-01
4.652278e-01	3.653719e+00	9.840346e-02
4.677275e-01	3.643626e+00	9.212208e-02
4.702273e-01	3.633922e+00	8.545592e-02
4.727271e-01	3.624256e+00	7.871551e-02
4.752268e-01	3.614287e+00	7.184771e-02
4.777266e-01	3.603751e+00	6.518661e-02
4.802264e-01	3.592539e+00	5.877224e-02
4.827261e-01	3.580684e+00	5.272473e-02
4.852259e-01	3.568414e+00	4.702997e-02
4.877257e-01	3.556066e+00	4.214918e-02
4.902255e-01	3.543784e+00	3.796540e-02
4.927252e-01	3.531880e+00	3.429609e-02
4.952250e-01	3.520465e+00	3.115638e-02
4.977248e-01	3.509422e+00	2.877740e-02
5.002245e-01	3.498582e+00	2.684795e-02
5.027243e-01	3.488121e+00	2.490516e-02
5.052241e-01	3.478178e+00	2.313525e-02
5.077238e-01	3.468470e+00	2.188495e-02
5.102236e-01	3.458921e+00	2.075087e-02
5.127234e-01	3.449688e+00	1.940718e-02
5.152232e-01	3.441092e+00	1.784573e-02
5.177229e-01	3.433150e+00	1.669608e-02
5.202227e-01	3.425194e+00	1.605122e-02
5.227225e-01	3.417026e+00	1.530964e-02
5.252222e-01	3.409011e+00	1.420490e-02
5.277220e-01	3.401409e+00	1.313560e-02
5.302218e-01	3.394320e+00	1.218643e-02
5.327215e-01	3.387701e+00	1.160206e-02
5.352213e-01	3.381127e+00	1.142783e-02
5.377211e-01	3.374336e+00	1.130763e-02
5.402209e-01	3.367655e+00	1.090173e-02
5.427206e-01	3.361333e+00	1.024004e-02
5.452204e-01	3.355193e+00	9.591160e-03
5.477202e-01	3.349125e+00	9.124298e-03
5.502199e-01	3.343125e+00	8.540425e-03
5.527197e-01	3.337216e+00	8.068628e-03
5.552195e-01	3.331334e+00	7.535931e-03
5.577193e-01	3.325621e+00	7.085022e-03
5.602190e-01	3.320249e+00	6.587066e-03
5.627188e-01	3.315054e+00	6.361018e-03
5.652186e-01	3.309905e+00	6.238821e-03
5.677183e-01	3.304827e+00	6.053631e-03
5.702181e-01	3.299962e+00	5.756906e-03
5.727179e-01	3.295255e+00	5.470490e-03
5.752176e-01	3.290558e+00	5.279945e-03
5.777174e-01	3.285801e+00	5.029766e-03
5.802172e-01	3.281168e+00	4.645882e-03
5.827170e-01	3.276594e+00	4.237780e-03
5.852167e-01	3.272081e+00	4.044565e-03
5.877165e-01	3.267561e+00	3.769039e-03
5.902163e-01	3.263159e+00	3.402260e-03
5.927160e-01	3.258985e+00	3.086267e-03
5.952158e-01	3.254973e+00	3.074432e-03
5.977156e-01	3.251000e+00	3.087915e-03
6.002153e-01	3.247074e+00	2.949743e-03
6.027151e-01	3.243232e+00	2.892461e-03
6.052149e-01	3.239607e+00	2.641274e-03
6.077147e-01	3.236070e+00	2.431140e-03
6.102144e-01	3.232534e+00	2.317563e-03
6.127142e-01	3.229002e+00	2.174980e-03
6.152140e-01	3.225462e+00	2.029167e-03
6.177137e-01	3.222005e+00	1.770715e-03
6.202135e-01	3.218629e+00	1.576202e-03
6.227133e-01	3.215259e+00	1.504309e-03
6.252130e-01	3.211853e+00	1.381514e-03
6.277128e-01	3.208421e+00	1.343309e-03
6.302126e-01	3.205169e+00	1.249492e-03
6.327124e-01	3.202045e+00	1.116886e-03
6.352121e-01	3.198998e+00	1.188119e-03
6.377119e-01	3.196012e+00	1.237935e-03
6.402117e-01	3.193019e+00	1.363476e-03
6.427114e-01	3.190099e+00	1.361860e-03
6.452112e-01	3.187260e+00	1.301031e-03
6.477110e-01	3.184513e+00	1.300693e-03
6.502108e-01	3.181864e+00	1.174430e-03
6.527105e-01	3.179190e+00	1.246637e-03
6.552103e-01	3.176510e+00	1.086354e-03
6.577101e-01	3.173803e+00	9.534937e-04
6.602098e-01	3.171200e+00	8.677899e-04
6.627096e-01	3.168612e+00	7.170220e-04
6.652094e-01	3.166104e+00	5.824441e-04
6.677091e-01	3.163612e+00	4.764158e-04
6.702089e-01	3.161150e+00	5.681784e-04
6.727087e-01	3.158644e+00	4.052204e-04
6.752085e-01	3.156123e+00	4.073534e-04
6.777082e-01	3.153663e+00	4.618134e-04
6.802080e-01	3.151293e+00	5.124820e-04
6.827078e-01	3.149022e+00	4.188532e-04
6.852075e-01	3.146859e+00	4.832551e-04
6.877073e-01	3.144676e+00	6.213476e-04
6.902071e-01	3.142504e+00	7.525114e-04
6.927068e-01	3.140426e+00	7.463187e-04
6.952066e-01	3.138316e+00	8.410544e-04
6.977064e-01	3.136364e+00	8.113168e-04
7.002062e-01	3.134468e+00	7.680525e-04
7.027059e-01	3.132570e+00	9.075923e-04
7.052057e-01	3.130668e+00	8.797919e-04
7.077055e-01	3.128635e+00	9.516917e-04
7.102052e-01	3.126639e+00	9.262592e-04
7.127050e-01	3.124679e+00	7.138018e-04
7.152048e-01	3.122719e+00	5.708988e-04
7.177045e-01	3.120972e+00	5.580537e-04
7.202043e-01	3.119104e+00	4.130226e-04
7.227041e-01	3.117308e+00	3.764417e-04
7.252039e-01	3.115481e+00	2.550961e-04
7.277036e-01	3.113655e+00	3.385861e-04
7.302034e-01	3.111741e+00	3.889371e-04
7.327032e-01	3.109820e+00	3.386677e-04
7.352029e-01	3.108015e+00	3.243078e-04
7.377027e-01	3.106249e+00	2.467126e-04
7.402025e-01	3.104624e+00	2.186020e-04
7.427023e-01	3.103118e+00	8.580129e-05
7.452020e-01	3.101643e+00	1.344724e-04
7.477018e-01	3.100106e+00	2.765272e-04
7.502016e-01	3.098591e+00	4.065670e-04
7.527013e-01	3.097197e+00	5.386508e-04
7.552011e-01	3.095720e+00	5.564628e-04
7.577009e-01	3.094262e+00	6.834963e-04
7.602006e-01	3.092964e+00	6.715064e-04
7.627004e-01	3.091674e+00	6.400997e-04
7.652002e-01	3.090411e+00	8.011636e-04
7.677000e-01	3.089093e+00	9.354874e-04
7.701997e-01	3.087845e+00	9.624107e-04
7.726995e-01	3.086437e+00	1.134011e-03
7.751993e-01	3.085015e+00	1.291928e-03
7.776990e-01	3.083558e+00	1.294769e-03
7.801988e-01	3.082074e+00	1.276437e-03
7.826986e-01	3.080683e+00	1.273434e-03
7.851983e-01	3.079248e+00	1.119706e-03
7.876981e-01	3.077952e+00	1.003391e-03
7.901979e-01	3.076637e+00	7.489031e-04
7.926977e-01	3.075377e+00	9.400423e-04
7.951974e-01	3.074080e+00	8.910839e-04
7.976972e-01	3.072710e+00	8.837545e-04
8.001970e-01	3.071339e+00	8.696923e-04
8.026967e-01	3.069955e+00	1.069889e-03
8.051965e-01	3.068611e+00	1.151093e-03
8.076963e-01	3.067148e+00	1.141737e-03
8.101961e-01	3.065844e+00	9.336410e-04
8.126958e-01	3.064540e+00	9.255581e-04
8.151956e-01	3.063277e+00	9.702090e-04
8.176954e-01	3.062092e+00	8.464092e-04
8.201951e-01	3.060935e+00	8.930820e-04
8.226949e-01	3.059776e+00	9.564777e-04
8.251947e-01	3.058730e+00	7.388510e-04
8.276944e-01	3.057677e+00	8.682529e-04
8.301942e-01	3.056646e+00	7.584686e-04
8.326940e-01	3.055625e+00	7.669063e-04
8.351938e-01	3.054689e+00	5.685277e-04
8.376935e-01	3.053794e+00	6.584187e-04
8.401933e-01	3.052987e+00	5.517529e-04
8.426931e-01	3.052187e+00	5.503321e-04
8.451928e-01	3.051511e+00	5.724956e-04
8.476926e-01	3.050715e+00	5.831834e-04
8.501924e-01	3.049922e+00	7.609136e-04
8.526921e-01	3.049149e+00	7.604210e-04
8.551919e-01	3.048201e+00	1.212974e-03
8.576917e-01	3.047304e+00	1.230545e-03
8.601915e-01	3.046301e+00	1.247735e-03
8.626912e-01	3.045273e+00	1.325883e-03
8.651910e-01	3.044138e+00	1.431364e-03
8.676908e-01	3.043066e+00	1.317068e-03
8.701905e-01	3.042097e+00	1.237056e-03
8.726903e-01	3.041087e+00	1.033245e-03
8.751901e-01	3.040113e+00	7.693839e-04
8.776898e-01	3.039205e+00	5.919613e-04
8.801896e-01	3.038403e+00	4.428953e-04
8.826894e-01	3.037521e+00	2.309601e-04
8.851892e-01	3.036831e+00	4.057107e-04
8.876889e-01	3.036024e+00	2.678680e-04
8.901887e-01	3.035168e+00	1.023040e-04
8.926885e-01	3.034387e+00	4.229830e-04
8.951882e-01	3.033504e+00	3.307581e-04
8.976880e-01	3.032627e+00	6.115914e-04
9.001878e-01	3.031741e+00	5.252738e-04
9.026876e-01	3.030810e+00	4.417617e-04
9.051873e-01	3.029988e+00	6.520560e-04
9.076871e-01	3.029169e+00	6.651162e-04
9.101869e-01	3.028260e+00	7.213969e-04
9.126866e-01	3.027467e+00	6.639654e-04
9.151864e-01	3.026610e+00	7.357343e-04
9.176862e-01	3.025742e+00	9.570331e-04
9.201859e-01	3.024900e+00	9.065890e-04
9.226857e-01	3.024196e+00	7.437654e-04
9.251855e-01	3.023265e+00	8.372518e-04
9.276853e-01	3.022461e+00	9.704706e-04
9.301850e-01	3.021640e+00	1.006363e-03
9.326848e-01	3.020869e+00	8.710592e-04
9.351846e-01	3.020008e+00	6.036996e-04
9.376843e-01	3.019217e+00	5.526266e-04
9.401841e-01	3.018637e+00	4.346696e-04
9.426839e-01	3.018079e+00	5.541726e-05
9.451836e-01	3.017632e+00	1.565522e-22
9.476834e-01	3.017247e+00	2.923329e-23
9.501832e-01	3.016859e+00	1.444861e-25
9.526830e-01	3.016445e+00	8.479835e-20
9.551827e-01	3.016098e+00	1.125491e-22
9.576825e-01	3.015846e+00	5.681978e-19
9.601823e-01	3.015646e+00	1.451617e-22
9.626820e-01	3.015243e+00	2.394750e-19
9.651818e-01	3.014856e+00	8.977038e-18
9.676816e-01	3.014384e+00	1.176466e-17
9.701813e-01	3.014069e+00	8.929405e-19
9.726811e-01	3.013475e+00	3.676130e-05
9.751809e-01	3.012849e+00	3.316188e-04
9.776807e-01	3.012350e+00	5.406125e-04
9.801804e-01	3.011704e+00	5.143910e-04
9.826802e-01	3.011085e+00	7.133340e-04
9.851800e-01	3.010605e+00	1.036969e-03
9.876797e-01	3.009910e+00	7.142669e-04
9.901795e-01	3.009208e+00	8.017518e-04
9.926793e-01	3.008683e+00	1.200506e-03
9.951791e-01	3.007968e+00	1.360212e-03
9.976788e-01	3.007248e+00	1.169555e-03
1.000179e+00	3.006562e+00	1.126596e-03
1.002678e+00	3.006098e+00	1.409989e-03
1.005178e+00	3.006887e+00	2.978568e-04
1.007678e+00	3.006320e+00	5.909349e-04
1.010178e+00	3.005772e+00	6.210272e-04
1.012677e+00	3.005185e+00	5.627650e-04
1.015177e+00	3.004613e+00	7.645654e-04
1.017677e+00	3.004047e+00	5.565271e-04
1.020177e+00	3.003428e+00	7.408981e-04
1.022677e+00	3.002851e+00	6.869490e-04
1.025176e+00	3.002281e+00	5.909177e-04
1.027676e+00	3.001766e+00	7.662043e-04
1.030176e+00	3.001244e+00	5.631205e-04
1.032676e+00	3.000770e+00	8.154534e-04
1.035175e+00	3.000325e+00	8.560486e-04
1.037675e+00	2.999866e+00	8.605426e-04
1.040175e+00	2.999465e+00	1.134259e-03
1.042675e+00	2.999059e+00	1.059567e-03
1.045174e+00	2.998718e+00	1.449708e-03
1.047674e+00	2.998401e+00	1.683300e-03
1.050174e+00	2.998062e+00	1.892997e-03
1.052674e+00	2.997817e+00	2.428055e-03
1.055174e+00	2.997504e+00	2.627635e-03
1.057673e+00	2.997179e+00	3.124752e-03
1.060173e+00	2.996739e+00	3.331151e-03
1.062673e+00	2.996218e+00	3.285035e-03
1.065173e+00	2.995483e+00	3.302751e-03
1.067672e+00	2.994727e+00	2.936493e-03
1.070172e+00	2.993852e+00	2.893863e-03
1.072672e+00	2.993196e+00	2.840971e-03
1.075172e+00	2.992642e+00	2.725860e-03
1.077671e+00	2.992274e+00	2.765357e-03
1.080171e+00	2.991884e+00	2.435726e-03
1.082671e+00	2.991371e+00	2.281429e-03
1.085171e+00	2.990962e+00	2.121670e-03
1.087671e+00	2.990603e+00	1.807094e-03
1.090170e+00	2.990348e+00	1.784345e-03
1.092670e+00	2.990091e+00	1.461207e-03
1.095170e+00	2.989808e+00	1.335931e-03
1.097670e+00	2.989570e+00	1.198020e-03
1.100169e+00	2.989342e+00	8.117680e-04
1.102669e+00	2.989143e+00	9.161897e-04
1.105169e+00	2.988915e+00	7.184313e-04
1.107669e+00	2.988668e+00	5.512619e-04
1.110168e+00	2.988450e+00	4.985917e-04
1.112668e+00	2.988208e+00	2.027685e-04
1.115168e+00	2.987928e+00	2.654785e-04
1.117668e+00	2.987672e+00	1.152406e-04
1.120168e+00	2.987432e+00	9.085328e-06
1.122667e+00	2.987182e+00	3.037707e-05
1.125167e+00	2.986908e+00	4.531484e-17
1.127667e+00	2.986630e+00	4.264890e-23
1.130167e+00	2.986344e+00	1.729373e-19
1.132666e+00	2.986025e+00	3.749701e-16
1.135166e+00	2.985645e+00	7.969290e-23
1.137666e+00	2.985237e+00	1.479345e-17
1.140166e+00	2.984842e+00	3.190938e-20
1.142665e+00	2.984460e+00	1.473789e-23
1.145165e+00	2.984039e+00	2.349975e-20
1.147665e+00	2.983724e+00	5.461758e-18
1.150165e+00	2.983390e+00	3.053164e-19
1.152665e+00	2.983091e+00	3.889972e-16
1.155164e+00	2.982865e+00	8.030360e-26
1.157664e+00	2.982604e+00	3.138991e-24
1.160164e+00	2.982381e+00	1.204114e-22
1.162664e+00	2.982130e+00	8.656373e-21
1.165163e+00	2.981879e+00	1.294744e-17
1.167663e+00	2.981680e+00	3.052692e-20
1.170163e+00	2.981429e+00	1.302866e-23
1.172663e+00	2.981208e+00	8.224429e-18
1.175163e+00	2.980955e+00	7.264763e-16
1.177662e+00	2.980655e+00	3.743569e-20
1.180162e+00	2.980391e+00	5.737156e-24
1.182662e+00	2.980075e+00	1.775928e-17
1.185162e+00	2.979811e+00	3.292289e-15
1.187661e+00	2.979529e+00	9.266964e-16
1.190161e+00	2.979175e+00	9.800979e-20
1.192661e+00	2.978893e+00	9.805692e-15
1.195161e+00	2.978583e+00	7.674573e-16
1.197660e+00	2.978303e+00	3.180244e-16
1.200160e+00	2.978019e+00	0.000000e+00
1.202660e+00	2.977681e+00	0.000000e+00
1.205160e+00	2.977409e+00	0.000000e+00
1.207660e+00	2.977135e+00	0.000000e+00
1.210159e+00	2.976850e+00	0.000000e+00
1.212659e+00	2.976627e+00	0.000000e+00
1.215159e+00	2.976349e+00	0.000000e+00
1.217659e+00	2.976055e+00	0.000000e+00
1.220158e+00	2.975770e+00	0.000000e+00
1.222658e+00	2.975448e+00	0.000000e+00
1.225158e+00	2.975140e+00	0.000000e+00
1.227658e+00	2.974802e+00	0.000000e+00
1.230157e+00	2.974440e+00	0.000000e+00
1.232657e+00	2.974064e+00	0.000000e+00
1.235157e+00	2.973652e+00	0.000000e+00
1.237657e+00	2.973286e+00	0.000000e+00
1.240157e+00	2.972898e+00	0.000000e+00
1.242656e+00	2.972467e+00	0.000000e+00
1.245156e+00	2.972081e+00	0.000000e+00
1.247656e+00	2.971633e+00	0.000000e+00
1.250156e+00	2.971124e+00	0.000000e+00
1.252655e+00	2.970692e+00	0.000000e+00
1.255155e+00	2.970250e+00	0.000000e+00
1.257655e+00	2.969809e+00	0.000000e+00
1.260155e+00	2.969378e+00	0.000000e+00
1.262654e+00	2.968948e+00	0.000000e+00
1.265154e+00	2.968566e+00	0.000000e+00
1.267654e+00	2.968160e+00	0.000000e+00
1.270154e+00	2.967746e+00	0.000000e+00
1.272654e+00	2.967392e+00	0.000000e+00
1.275153e+00	2.967037e+00	0.000000e+00
1.277653e+00	2.966727e+00	0.000000e+00
1.280153e+00	2.966428e+00	0.000000e+00
1.282653e+00	2.966132e+00	0.000000e+00
1.285152e+00	2.965921e+00	0.000000e+00
1.287652e+00	2.965682e+00	0.000000e+00
1.290152e+00	2.965419e+00	0.000000e+00
1.292652e+00	2.965125e+00	0.000000e+00
1.295151e+00	2.964791e+00	0.000000e+00
1.297651e+00	2.964588e+00	0.000000e+00
1.300151e+00	2.964356e+00	0.000000e+00
1.302651e+00	2.964083e+00	0.000000e+00
1.305151e+00	2.963860e+00	0.000000e+00
1.307650e+00	2.963626e+00	0.000000e+00
1.310150e+00	2.963416e+00	0.000000e+00
1.312650e+00	2.963189e+00	0.000000e+00
1.315150e+00	2.962916e+00	0.000000e+00
1.317649e+00	2.962650e+00	0.000000e+00
1.320149e+00	2.962387e+00	0.000000e+00
1.322649e+00	2.962127e+00	0.000000e+00
1.325149e+00	2.961873e+00	0.000000e+00
1.327649e+00	2.961592e+00	0.000000e+00
1.330148e+00	2.961303e+00	0.000000e+00
1.332648e+00	2.961030e+00	0.000000e+00
1.335148e+00	2.960754e+00	0.000000e+00
1.337648e+00	2.960556e+00	0.000000e+00
1.340147e+00	2.960341e+00	0.000000e+00
1.342647e+00	2.960099e+00	0.000000e+00
1.345147e+00	2.959755e+00	0.000000e+00
1.347647e+00	2.959457e+00	0.000000e+00
1.350146e+00	2.959253e+00	0.000000e+00
1.352646e+00	2.958923e+00	0.000000e+00
1.355146e+00	2.958561e+00	0.000000e+00
1.357646e+00	2.958273e+00	0.000000e+00
1.360146e+00	2.957974e+00	0.000000e+00
1.362645e+00	2.957666e+00	0.000000e+00
1.365145e+00	2.957601e+00	0.000000e+00
1.367645e+00	2.957556e+00	0.000000e+00
1.370145e+00	2.957520e+00	0.000000e+00
1.372644e+00	2.957653e+00	0.000000e+00
1.375144e+00	2.957677e+00	0.000000e+00
1.377644e+00	2.957468e+00	0.000000e+00
1.380144e+00	2.957076e+00	0.000000e+00
1.382643e+00	2.956605e+00	0.000000e+00
1.385143e+00	2.956483e+00	0.000000e+00
1.387643e+00	2.956361e+00	0.000000e+00
1.390143e+00	2.956227e+00	0.000000e+00
1.392643e+00	2.956140e+00	0.000000e+00
1.395142e+00	2.955943e+00	0.000000e+00
1.397642e+00	2.955625e+00	0.000000e+00
