Material: semiconductor alloys / AlAs-GaAs / Gadras-32
Optical constants. P. Gadras, L. Bourdon, A. Fées, K. Ben Saddik, A. Guilhem, A. Arnoult. Optical refractive index measurements of AlGaAs at high temperature for fully automated molecular beam epitaxy growth of Bragg mirrors. J. Phys. D: Appl. Phys. 58, 0022-3727 (2025) (Numerical data kindly provided by Pierre Gadras)
Comments: AlxGa1-xAs; x=0.32; 600 °C
Conditions: {"temperature": 873}
wavelength (um)	n	k
4.502291e-01	4.616097e+00	1.218722e+00
4.527289e-01	4.594118e+00	1.166528e+00
4.552287e-01	4.583395e+00	1.114763e+00
4.577284e-01	4.563499e+00	1.059296e+00
4.602282e-01	4.538660e+00	1.017267e+00
4.627280e-01	4.519963e+00	9.707494e-01
4.652278e-01	4.494406e+00	9.363721e-01
4.677275e-01	4.474037e+00	8.881170e-01
4.702273e-01	4.454643e+00	8.502102e-01
4.727271e-01	4.437314e+00	8.143977e-01
4.752268e-01	4.410484e+00	7.795756e-01
4.777266e-01	4.389557e+00	7.452300e-01
4.802264e-01	4.369679e+00	7.174438e-01
4.827261e-01	4.350477e+00	6.886777e-01
4.852259e-01	4.332654e+00	6.612192e-01
4.877257e-01	4.312431e+00	6.354112e-01
4.902255e-01	4.293684e+00	6.147188e-01
4.927252e-01	4.277752e+00	5.919310e-01
4.952250e-01	4.259864e+00	5.674315e-01
4.977248e-01	4.245935e+00	5.496209e-01
5.002245e-01	4.230994e+00	5.306868e-01
5.027243e-01	4.214302e+00	5.157164e-01
5.052241e-01	4.199769e+00	4.982722e-01
5.077238e-01	4.185485e+00	4.834887e-01
5.102236e-01	4.173719e+00	4.679280e-01
5.127234e-01	4.161889e+00	4.544311e-01
5.152232e-01	4.147945e+00	4.405978e-01
5.177229e-01	4.136435e+00	4.291784e-01
5.202227e-01	4.124202e+00	4.175202e-01
5.227225e-01	4.112841e+00	4.058973e-01
5.252222e-01	4.103119e+00	3.966974e-01
5.277220e-01	4.093219e+00	3.858236e-01
5.302218e-01	4.081838e+00	3.756892e-01
5.327215e-01	4.070196e+00	3.674933e-01
5.352213e-01	4.059423e+00	3.586349e-01
5.377211e-01	4.051026e+00	3.491176e-01
5.402209e-01	4.043129e+00	3.420538e-01
5.427206e-01	4.034481e+00	3.332395e-01
5.452204e-01	4.024534e+00	3.260012e-01
5.477202e-01	4.017238e+00	3.189037e-01
5.502199e-01	4.010018e+00	3.117710e-01
5.527197e-01	4.001627e+00	3.057288e-01
5.552195e-01	3.993141e+00	2.986217e-01
5.577193e-01	3.987913e+00	2.920082e-01
5.602190e-01	3.981428e+00	2.859900e-01
5.627188e-01	3.975513e+00	2.813132e-01
5.652186e-01	3.967089e+00	2.771272e-01
5.677183e-01	3.961510e+00	2.716035e-01
5.702181e-01	3.955251e+00	2.672505e-01
5.727179e-01	3.950049e+00	2.637815e-01
5.752176e-01	3.943699e+00	2.593741e-01
5.777174e-01	3.938936e+00	2.548927e-01
5.802172e-01	3.930211e+00	2.527029e-01
5.827170e-01	3.925061e+00	2.513711e-01
5.852167e-01	3.921432e+00	2.448768e-01
5.877165e-01	3.915024e+00	2.432757e-01
5.902163e-01	3.910498e+00	2.397535e-01
5.927160e-01	3.905901e+00	2.373491e-01
5.952158e-01	3.900170e+00	2.343867e-01
5.977156e-01	3.893713e+00	2.324440e-01
6.002153e-01	3.888060e+00	2.306778e-01
6.027151e-01	3.882444e+00	2.287341e-01
6.052149e-01	3.876013e+00	2.281957e-01
6.077147e-01	3.873742e+00	2.241124e-01
6.102144e-01	3.865630e+00	2.212448e-01
6.127142e-01	3.862082e+00	2.198791e-01
6.152140e-01	3.855235e+00	2.195392e-01
6.177137e-01	3.852161e+00	2.159377e-01
6.202135e-01	3.846522e+00	2.125456e-01
6.227133e-01	3.839671e+00	2.122124e-01
6.252130e-01	3.834765e+00	2.102060e-01
6.277128e-01	3.829111e+00	2.074623e-01
6.302126e-01	3.824710e+00	2.040378e-01
6.327124e-01	3.818275e+00	2.028441e-01
6.352121e-01	3.814622e+00	1.992885e-01
6.377119e-01	3.806780e+00	1.987342e-01
6.402117e-01	3.803091e+00	1.959942e-01
6.427114e-01	3.798600e+00	1.934281e-01
6.452112e-01	3.793817e+00	1.898894e-01
6.477110e-01	3.787724e+00	1.879730e-01
6.502108e-01	3.784467e+00	1.849490e-01
6.527105e-01	3.778975e+00	1.810320e-01
6.552103e-01	3.773656e+00	1.789431e-01
6.577101e-01	3.767531e+00	1.754304e-01
6.602098e-01	3.761397e+00	1.713843e-01
6.627096e-01	3.756655e+00	1.683257e-01
6.652094e-01	3.752922e+00	1.636638e-01
6.677091e-01	3.751869e+00	1.617007e-01
6.702089e-01	3.746852e+00	1.580588e-01
6.727087e-01	3.743063e+00	1.536239e-01
6.752085e-01	3.734599e+00	1.485063e-01
6.777082e-01	3.730879e+00	1.464425e-01
6.802080e-01	3.730796e+00	1.432499e-01
6.827078e-01	3.724341e+00	1.402249e-01
6.852075e-01	3.720008e+00	1.345195e-01
6.877073e-01	3.714074e+00	1.299330e-01
6.902071e-01	3.711502e+00	1.254360e-01
6.927068e-01	3.708334e+00	1.241077e-01
6.952066e-01	3.702704e+00	1.201325e-01
6.977064e-01	3.702463e+00	1.155749e-01
7.002062e-01	3.702376e+00	1.196982e-01
7.037058e-01	3.699405e+00	1.168705e-01
7.062056e-01	3.696755e+00	1.149805e-01
7.087054e-01	3.692915e+00	1.134464e-01
7.112051e-01	3.690991e+00	1.116233e-01
7.012061e-01	3.701455e+00	1.187522e-01
7.152048e-01	3.686166e+00	1.099880e-01
7.177045e-01	3.683604e+00	1.088289e-01
7.202043e-01	3.680235e+00	1.079578e-01
7.227041e-01	3.677565e+00	1.069455e-01
7.252039e-01	3.674687e+00	1.052697e-01
7.277036e-01	3.672087e+00	1.044437e-01
7.302034e-01	3.668986e+00	1.027702e-01
7.327032e-01	3.667333e+00	1.013473e-01
7.352029e-01	3.664760e+00	9.976021e-02
7.377027e-01	3.661920e+00	9.878232e-02
7.402025e-01	3.659311e+00	9.702643e-02
7.427023e-01	3.656023e+00	9.522983e-02
7.452020e-01	3.654558e+00	9.500647e-02
7.477018e-01	3.651808e+00	9.240376e-02
7.502016e-01	3.650309e+00	9.024189e-02
7.527013e-01	3.648819e+00	8.937519e-02
7.552011e-01	3.645643e+00	8.870141e-02
7.577009e-01	3.643813e+00	8.571855e-02
7.602006e-01	3.642812e+00	8.427039e-02
7.627004e-01	3.641657e+00	8.214382e-02
7.652002e-01	3.639416e+00	8.023761e-02
7.677000e-01	3.636530e+00	7.949723e-02
7.701997e-01	3.636093e+00	7.660355e-02
7.726995e-01	3.635006e+00	7.558050e-02
7.751993e-01	3.633332e+00	7.329330e-02
7.776990e-01	3.632904e+00	7.111638e-02
7.801988e-01	3.630163e+00	7.034744e-02
7.826986e-01	3.630143e+00	6.793252e-02
7.851983e-01	3.628507e+00	6.512013e-02
7.876981e-01	3.628292e+00	6.301192e-02
7.901979e-01	3.627367e+00	6.085464e-02
7.926977e-01	3.627651e+00	5.765977e-02
7.951974e-01	3.625605e+00	5.534901e-02
7.976972e-01	3.625232e+00	5.194126e-02
8.001970e-01	3.623644e+00	4.857326e-02
8.026967e-01	3.624424e+00	4.600389e-02
8.051965e-01	3.623171e+00	4.153497e-02
8.076963e-01	3.622043e+00	3.765411e-02
8.101961e-01	3.620771e+00	3.262798e-02
8.126958e-01	3.618647e+00	2.684783e-02
8.151956e-01	3.614933e+00	2.126613e-02
8.176954e-01	3.610526e+00	1.611598e-02
8.201951e-01	3.603880e+00	1.160139e-02
8.226949e-01	3.597619e+00	7.460616e-03
8.251947e-01	3.591453e+00	4.698270e-03
8.276944e-01	3.585937e+00	2.388325e-03
8.301942e-01	3.579550e+00	1.445923e-03
8.326940e-01	3.575265e+00	2.781535e-05
8.351938e-01	3.569845e+00	8.200160e-20
8.376935e-01	3.564905e+00	1.986068e-21
8.401933e-01	3.560401e+00	1.974427e-23
8.426931e-01	3.556368e+00	1.402029e-23
8.451928e-01	3.552939e+00	3.062569e-18
8.476926e-01	3.548664e+00	2.377683e-23
8.501924e-01	3.545190e+00	2.622558e-17
8.526921e-01	3.541754e+00	2.884028e-20
8.551919e-01	3.538209e+00	4.712772e-24
8.576917e-01	3.534972e+00	3.242573e-22
8.601915e-01	3.532186e+00	8.537633e-24
8.626912e-01	3.529028e+00	4.738161e-23
8.651910e-01	3.526287e+00	3.782649e-18
8.676908e-01	3.523226e+00	4.817709e-16
8.701905e-01	3.521295e+00	2.695967e-19
8.726903e-01	3.518224e+00	1.001022e-04
8.751901e-01	3.516115e+00	1.922464e-21
8.776898e-01	3.513503e+00	3.962356e-04
8.801896e-01	3.510584e+00	1.123563e-03
8.826894e-01	3.508853e+00	3.565585e-04
8.851892e-01	3.506296e+00	6.128484e-04
8.876889e-01	3.504524e+00	1.720121e-03
8.901887e-01	3.502475e+00	1.445333e-03
8.926885e-01	3.499395e+00	1.355063e-03
8.951882e-01	3.498028e+00	2.056114e-03
8.976880e-01	3.496007e+00	1.616558e-03
9.001878e-01	3.493879e+00	1.933939e-03
9.026876e-01	3.492939e+00	1.552269e-03
9.051873e-01	3.491015e+00	2.381163e-03
9.076871e-01	3.488895e+00	2.232465e-03
9.101869e-01	3.486968e+00	2.181130e-03
9.126866e-01	3.484297e+00	2.680650e-03
9.151864e-01	3.482568e+00	2.561345e-03
9.176862e-01	3.479901e+00	3.442383e-03
9.201859e-01	3.478524e+00	3.670172e-03
9.226857e-01	3.477292e+00	3.360578e-03
9.251855e-01	3.475012e+00	4.630788e-03
9.276853e-01	3.473006e+00	4.900842e-03
9.301850e-01	3.470788e+00	4.769607e-03
9.326848e-01	3.469651e+00	5.138560e-03
9.351846e-01	3.467500e+00	5.851577e-03
9.376843e-01	3.466219e+00	5.189645e-03
9.401841e-01	3.464416e+00	5.266972e-03
9.426839e-01	3.463133e+00	5.294078e-03
9.451836e-01	3.461246e+00	5.202144e-03
9.476834e-01	3.459474e+00	4.844244e-03
9.501832e-01	3.456814e+00	5.332425e-03
9.526830e-01	3.455990e+00	6.459707e-03
9.551827e-01	3.454790e+00	7.420649e-03
9.576825e-01	3.452190e+00	7.505986e-03
9.601823e-01	3.450031e+00	7.727454e-03
9.626820e-01	3.448268e+00	6.990789e-03
9.651818e-01	3.446957e+00	7.090058e-03
9.676816e-01	3.446143e+00	6.711317e-03
9.701813e-01	3.444596e+00	6.823334e-03
9.726811e-01	3.442934e+00	7.006660e-03
9.751809e-01	3.441260e+00	8.000968e-03
9.776807e-01	3.440179e+00	7.754508e-03
9.801804e-01	3.438477e+00	7.920627e-03
9.826802e-01	3.437221e+00	7.238582e-03
9.851800e-01	3.436030e+00	8.507187e-03
9.876797e-01	3.434801e+00	8.406596e-03
9.901795e-01	3.432569e+00	9.279904e-03
9.926793e-01	3.431191e+00	1.062898e-02
9.951791e-01	3.430037e+00	1.007485e-02
9.976788e-01	3.429839e+00	1.006699e-02
1.000179e+00	3.426150e+00	1.093359e-02
1.002678e+00	3.424764e+00	1.082071e-02
1.005178e+00	3.425285e+00	3.239941e-03
1.007678e+00	3.423707e+00	2.865430e-03
1.010178e+00	3.422916e+00	2.040359e-03
1.012677e+00	3.420877e+00	3.489101e-03
1.015177e+00	3.420620e+00	2.393226e-03
1.017677e+00	3.419102e+00	3.276237e-03
1.020177e+00	3.419071e+00	3.023842e-03
1.022677e+00	3.418164e+00	2.798227e-03
1.025176e+00	3.416882e+00	3.055783e-28
1.027676e+00	3.414951e+00	1.200508e-03
1.030176e+00	3.417606e+00	3.991826e-05
1.032676e+00	3.416603e+00	1.984782e-16
1.035175e+00	3.415995e+00	3.063239e-16
1.037675e+00	3.411252e+00	2.955668e-19
1.040175e+00	3.411223e+00	4.756924e-17
1.042675e+00	3.411429e+00	3.723779e-18
1.045174e+00	3.410766e+00	6.118439e-18
1.047674e+00	3.410129e+00	8.430588e-17
1.050174e+00	3.409414e+00	5.596844e-20
1.052674e+00	3.409247e+00	2.516156e-21
1.055174e+00	3.409285e+00	4.249876e-19
1.057673e+00	3.408630e+00	6.299764e-15
1.060173e+00	3.408219e+00	1.082648e-16
1.062673e+00	3.407950e+00	1.054422e-13
1.065173e+00	3.407206e+00	4.338706e-04
1.067672e+00	3.406161e+00	4.637869e-04
1.070172e+00	3.404409e+00	4.776853e-04
1.072672e+00	3.403692e+00	6.547555e-04
1.075172e+00	3.403871e+00	1.017660e-03
1.077671e+00	3.403898e+00	1.365729e-03
1.080171e+00	3.403552e+00	1.369926e-03
1.082671e+00	3.401845e+00	1.528671e-03
1.085171e+00	3.400429e+00	1.671253e-03
1.087671e+00	3.399048e+00	1.559789e-03
1.090170e+00	3.398454e+00	2.547599e-03
1.092670e+00	3.398050e+00	3.261800e-03
1.095170e+00	3.397951e+00	4.304517e-03
1.097670e+00	3.397128e+00	4.771425e-03
1.100169e+00	3.395869e+00	4.481181e-03
1.102669e+00	3.395582e+00	5.655871e-03
1.105169e+00	3.395179e+00	6.406446e-03
1.107669e+00	3.394810e+00	6.944165e-03
1.110168e+00	3.394033e+00	6.862836e-03
1.112668e+00	3.393024e+00	6.129982e-03
1.115168e+00	3.393013e+00	7.224554e-03
1.117668e+00	3.392417e+00	7.532247e-03
1.120168e+00	3.391080e+00	6.892343e-03
1.122667e+00	3.390288e+00	7.391403e-03
1.125167e+00	3.389387e+00	7.866257e-03
1.127667e+00	3.387611e+00	7.211646e-03
1.130167e+00	3.386165e+00	6.606628e-03
1.132666e+00	3.384913e+00	6.205142e-03
1.135166e+00	3.384069e+00	7.062785e-03
1.137666e+00	3.383107e+00	7.961203e-03
1.140166e+00	3.382228e+00	9.142151e-03
1.142665e+00	3.380651e+00	9.019997e-03
1.145165e+00	3.378324e+00	7.659601e-03
1.147665e+00	3.377569e+00	8.290346e-03
1.150165e+00	3.376839e+00	8.911458e-03
1.152665e+00	3.376363e+00	9.760702e-03
1.155164e+00	3.375708e+00	9.774451e-03
1.157664e+00	3.374777e+00	9.049627e-03
1.160164e+00	3.373897e+00	9.015624e-03
1.162664e+00	3.373126e+00	8.837960e-03
1.165163e+00	3.372614e+00	8.841274e-03
1.167663e+00	3.372503e+00	1.003535e-02
1.170163e+00	3.372410e+00	1.121727e-02
1.172663e+00	3.372905e+00	1.155295e-02
1.175163e+00	3.372997e+00	1.122059e-02
1.177662e+00	3.372657e+00	1.016993e-02
1.180162e+00	3.372512e+00	1.104334e-02
1.182662e+00	3.372224e+00	1.147250e-02
1.185162e+00	3.371707e+00	1.043199e-02
1.187661e+00	3.370912e+00	1.090650e-02
1.190161e+00	3.369724e+00	1.211318e-02
1.192661e+00	3.369414e+00	1.111714e-02
1.195161e+00	3.368737e+00	1.044995e-02
1.197660e+00	3.367406e+00	1.068698e-02
1.200160e+00	3.366683e+00	0.000000e+00
1.202660e+00	3.366211e+00	0.000000e+00
1.205160e+00	3.366856e+00	0.000000e+00
1.207660e+00	3.366876e+00	0.000000e+00
1.210159e+00	3.366169e+00	0.000000e+00
1.212659e+00	3.366115e+00	0.000000e+00
1.215159e+00	3.365994e+00	0.000000e+00
1.217659e+00	3.365860e+00	0.000000e+00
1.220158e+00	3.365620e+00	0.000000e+00
1.222658e+00	3.365363e+00	0.000000e+00
1.225158e+00	3.365054e+00	0.000000e+00
1.227658e+00	3.364379e+00	0.000000e+00
1.230157e+00	3.363202e+00	0.000000e+00
1.232657e+00	3.362842e+00	0.000000e+00
1.235157e+00	3.362638e+00	0.000000e+00
1.237657e+00	3.362422e+00	0.000000e+00
1.240157e+00	3.362502e+00	0.000000e+00
1.242656e+00	3.362821e+00	0.000000e+00
1.245156e+00	3.362630e+00	0.000000e+00
1.247656e+00	3.362553e+00	0.000000e+00
1.250156e+00	3.362969e+00	0.000000e+00
1.252655e+00	3.363113e+00	0.000000e+00
1.255155e+00	3.363122e+00	0.000000e+00
1.257655e+00	3.363522e+00	0.000000e+00
1.260155e+00	3.363770e+00	0.000000e+00
1.262654e+00	3.363927e+00	0.000000e+00
1.265154e+00	3.363589e+00	0.000000e+00
1.267654e+00	3.363013e+00	0.000000e+00
1.270154e+00	3.362259e+00	0.000000e+00
1.272654e+00	3.362121e+00	0.000000e+00
1.275153e+00	3.362220e+00	0.000000e+00
1.277653e+00	3.362645e+00	0.000000e+00
1.280153e+00	3.363062e+00	0.000000e+00
1.282653e+00	3.363543e+00	0.000000e+00
1.285152e+00	3.364100e+00	0.000000e+00
1.287652e+00	3.364421e+00	0.000000e+00
1.290152e+00	3.364537e+00	0.000000e+00
1.292652e+00	3.364457e+00	0.000000e+00
1.295151e+00	3.364153e+00	0.000000e+00
1.297651e+00	3.364727e+00	0.000000e+00
1.300151e+00	3.364449e+00	0.000000e+00
1.302651e+00	3.363287e+00	0.000000e+00
1.305151e+00	3.364740e+00	0.000000e+00
1.307650e+00	3.365810e+00	0.000000e+00
1.310150e+00	3.365538e+00	0.000000e+00
1.312650e+00	3.364020e+00	0.000000e+00
1.315150e+00	3.362078e+00	0.000000e+00
1.317649e+00	3.362365e+00	0.000000e+00
1.320149e+00	3.362201e+00	0.000000e+00
1.322649e+00	3.361653e+00	0.000000e+00
1.325149e+00	3.362829e+00	0.000000e+00
1.327649e+00	3.363725e+00	0.000000e+00
1.330148e+00	3.363982e+00	0.000000e+00
1.332648e+00	3.364548e+00	0.000000e+00
1.335148e+00	3.364909e+00	0.000000e+00
1.337648e+00	3.364403e+00	0.000000e+00
1.340147e+00	3.364555e+00	0.000000e+00
1.342647e+00	3.365191e+00	0.000000e+00
1.345147e+00	3.363241e+00	0.000000e+00
1.347647e+00	3.361890e+00	0.000000e+00
1.350146e+00	3.362046e+00	0.000000e+00
1.352646e+00	3.361958e+00	0.000000e+00
1.355146e+00	3.361280e+00	0.000000e+00
1.357646e+00	3.359347e+00	0.000000e+00
1.360146e+00	3.358586e+00	0.000000e+00
1.362645e+00	3.357949e+00	0.000000e+00
1.365145e+00	3.357201e+00	0.000000e+00
1.367645e+00	3.357154e+00	0.000000e+00
1.370145e+00	3.357445e+00	0.000000e+00
1.372644e+00	3.357647e+00	0.000000e+00
1.375144e+00	3.357179e+00	0.000000e+00
1.377644e+00	3.356765e+00	0.000000e+00
1.380144e+00	3.357165e+00	0.000000e+00
1.382643e+00	3.357093e+00	0.000000e+00
1.385143e+00	3.358938e+00	0.000000e+00
1.387643e+00	3.359546e+00	0.000000e+00
1.390143e+00	3.358517e+00	0.000000e+00
1.392643e+00	3.354580e+00	0.000000e+00
1.395142e+00	3.350722e+00	0.000000e+00
1.397642e+00	3.348163e+00	0.000000e+00
