Material: glass / cdgm / D-FK61-25
Optical constants. CDGM Zemax catalog 2022-06 (obtained from http://www.cdgmgd.com)See also CDGM optical glass data sheets
Comments: anneal rate:25℃/h
Specs: {"n_absolute": false, "wavelength_vacuum": false, "temperature": "20.0 ℃", "thermal_dispersion": [{"type": "Schott formula", "coefficients": "-2.45e-05 -2.09e-09 -6.72e-13 3.69e-07 2.37e-10 0.173"}], "nd": 1.49653, "Vd": 81.531772, "glass_code": 497815, "density": "3.9 g/cm3", "thermal_expansion": [{"temperature_range": "-30 70 ℃", "coefficient": "1.45e-05 K-1"}, {"temperature_range": "20 300 ℃", "coefficient": "1.7e-05 K-1"}], "dPgF": 0.0321, "climatic_resistance": 1.0}
Dispersion formula 2, range 0.302 2.325 um, coefficients 0 0.894432499 0.00436678978 0.321652123 0.0141909741 0.748704285 149.771388
wavelength (um)	k
0.280	6.7660E-06
0.290	4.5373E-06
0.300	2.7883E-06
0.310	1.9480E-06
0.320	8.0839E-07
0.330	3.8692E-07
0.340	1.9344E-07
0.350	9.0584E-08
0.360	4.9120E-08
0.370	2.3650E-08
0.380	1.8198E-08
0.390	1.5557E-08
0.400	9.5636E-09
0.420	1.3396E-08
0.440	1.0520E-08
0.460	7.3285E-09
0.480	7.6471E-09
0.500	7.9657E-09
0.550	8.7623E-09
0.600	9.5589E-09
0.650	1.0355E-08
0.700	1.1152E-08
0.800	1.2745E-08
0.850	1.3542E-08
0.900	1.4338E-08
0.950	1.5135E-08
1.000	1.5931E-08
1.060	1.6887E-08
1.200	1.9118E-08
1.400	2.2304E-08
1.600	2.5490E-08
1.800	2.8677E-08
2.000	3.1863E-08
2.200	3.5049E-08
2.400	7.6548E-08
