Material: glass / cdgm / D-ZF93-25
Optical constants. CDGM Zemax catalog 2022-06 (obtained from http://www.cdgmgd.com)See also CDGM optical glass data sheets
Comments: anneal rate:25℃/h
Specs: {"n_absolute": false, "wavelength_vacuum": false, "temperature": "20.0 ℃", "thermal_dispersion": [{"type": "Schott formula", "coefficients": "1.28e-05 3.34e-08 -1.53e-10 2.75e-06 2.52e-09 0.299"}], "nd": 1.9998, "Vd": 20.686444, "density": "6.11 g/cm3", "thermal_expansion": [{"temperature_range": "-30 70 ℃", "coefficient": "7.8e-06 K-1"}, {"temperature_range": "20 300 ℃", "coefficient": "9.4e-06 K-1"}], "dPgF": 0.0283, "climatic_resistance": 1.0}
Dispersion formula 2, range 0.4358 2.325 um, coefficients 0 1.4330228 101.185435 2.13630545 0.0138161232 0.630184037 0.065857845
wavelength (um)	k
0.400	1.2788E-05
0.420	4.2427E-06
0.440	1.9376E-06
0.460	1.0288E-06
0.480	5.8055E-07
0.500	3.4042E-07
0.550	1.0632E-07
0.600	6.7317E-08
0.650	6.2446E-08
0.700	6.1614E-08
0.800	6.3982E-08
0.850	3.3905E-08
0.900	2.8705E-08
0.950	2.2714E-08
1.000	2.3909E-08
1.060	1.6887E-08
1.200	1.9118E-08
1.400	4.4653E-08
1.600	7.6624E-08
1.800	2.1649E-07
2.000	6.1658E-07
2.200	1.9225E-06
2.400	6.0105E-06
