Material: glass / cdgm / D-ZK21-25
Optical constants. CDGM Zemax catalog 2022-06 (obtained from http://www.cdgmgd.com)See also CDGM optical glass data sheets
Comments: anneal rate:25℃/h
Specs: {"n_absolute": false, "wavelength_vacuum": false, "temperature": "20.0 ℃", "thermal_dispersion": [{"type": "Schott formula", "coefficients": "4.26e-06 1.53e-08 -2.43e-11 4.86e-07 2.51e-10 0.199"}], "nd": 1.62346, "Vd": 58.115078, "glass_code": 623581, "density": "2.99 g/cm3", "thermal_expansion": [{"temperature_range": "-30 70 ℃", "coefficient": "6.1e-06 K-1"}, {"temperature_range": "20 300 ℃", "coefficient": "8.4e-06 K-1"}], "dPgF": -0.0066, "climatic_resistance": 1.0}
Dispersion formula 2, range 0.302 2.325 um, coefficients 0 1.08777542 0.0143531981 0.505694645 -0.000448862561 1.31533152 104.063333
wavelength (um)	k
0.280	3.4880E-06
0.290	2.6586E-06
0.300	1.8904E-06
0.310	1.2643E-06
0.320	7.9792E-07
0.330	4.8615E-07
0.340	2.8507E-07
0.350	1.6346E-07
0.360	8.7259E-08
0.370	5.0485E-08
0.380	3.0392E-08
0.390	2.1801E-08
0.400	1.9156E-08
0.420	1.6753E-08
0.440	1.4034E-08
0.460	1.0998E-08
0.480	1.1476E-08
0.500	1.1955E-08
0.550	1.3150E-08
0.600	1.4345E-08
0.650	1.0355E-08
0.700	1.1152E-08
0.800	1.2745E-08
0.850	1.3542E-08
0.900	1.4338E-08
0.950	1.5135E-08
1.000	1.5931E-08
1.060	1.6887E-08
1.200	1.9118E-08
1.400	6.7046E-08
1.600	6.3822E-08
1.800	1.5844E-07
2.000	4.5199E-07
2.200	1.5935E-06
2.400	6.4338E-06
