Material: glass / cdgm / D-ZPK3-25
Optical constants. CDGM Zemax catalog 2022-06 (obtained from http://www.cdgmgd.com)See also CDGM optical glass data sheets
Comments: anneal rate:25℃/h
Specs: {"n_absolute": false, "wavelength_vacuum": false, "temperature": "20.0 ℃", "thermal_dispersion": [{"type": "Schott formula", "coefficients": "-8.61e-06 1.14e-08 -3.06e-11 3.5e-07 1.08e-10 0.215"}], "nd": 1.59327, "Vd": 67.22642, "glass_code": 593672, "density": "3.37 g/cm3", "thermal_expansion": [{"temperature_range": "-30 70 ℃", "coefficient": "9.2e-06 K-1"}, {"temperature_range": "20 300 ℃", "coefficient": "1.15e-05 K-1"}], "dPgF": 0.0054, "climatic_resistance": 1.0}
Dispersion formula 2, range 0.302 2.325 um, coefficients 0 0.580374258 0.00172131188 0.923503788 0.0126541722 1.03923776 105.366349
wavelength (um)	k
0.280	2.8846E-06
0.290	2.2574E-06
0.300	1.6884E-06
0.310	1.3395E-06
0.320	7.1566E-07
0.330	4.2370E-07
0.340	2.4034E-07
0.350	1.3408E-07
0.360	7.8413E-08
0.370	5.0485E-08
0.380	2.7339E-08
0.390	1.8677E-08
0.400	1.9156E-08
0.420	1.3396E-08
0.440	1.7551E-08
0.460	1.4672E-08
0.480	1.9146E-08
0.500	1.5947E-08
0.550	1.3150E-08
0.600	1.4345E-08
0.650	1.0355E-08
0.700	1.1152E-08
0.800	1.2745E-08
0.850	1.3542E-08
0.900	1.4338E-08
0.950	1.5135E-08
1.000	1.5931E-08
1.060	1.6887E-08
1.200	1.9118E-08
1.400	4.4653E-08
1.600	1.4083E-07
1.800	4.6586E-07
2.000	1.0017E-06
2.200	2.3377E-06
2.400	3.5586E-06
