Material: main / MoOCl2 / Ermolaev-alpha
Optical constants. G. Ermolaev, A. Toksumakov, A. Slavich, A. Minnekhanov, G. Tselikov, A. Mazitov, I. Kruglov, G. Tikhonowski, M. Mironov, I. Radko, D. Grudinin, A. Vyshnevyy, Z. Sofer, A. Arsenin, K.S. Novoselov, V. Volkov. Giant optical anisotropy and visible-frequency epsilon-near-zero in hyperbolic van der Waals MoOCl2. arXiv:2512.06495 (2025) (Numerical data kindly provided by Georgy Ermolaev)
Comments: Crystallographic a-axis (optical Î±-axis).
wavelength (um)	n	k
0.360	3.09225	1.82437
0.364	3.10710	1.53003
0.368	3.06059	1.27904
0.372	2.97969	1.07536
0.376	2.88286	0.91372
0.380	2.78097	0.78629
0.384	2.67978	0.68567
0.388	2.58211	0.60578
0.392	2.48908	0.54193
0.396	2.40097	0.49056
0.400	2.31760	0.44900
0.404	2.23862	0.41526
0.408	2.16356	0.38782
0.412	2.09198	0.36552
0.416	2.02342	0.34750
0.420	1.95746	0.33307
0.424	1.89373	0.32172
0.428	1.83188	0.31304
0.432	1.77160	0.30672
0.436	1.71260	0.30252
0.440	1.65462	0.30028
0.444	1.59742	0.29987
0.448	1.54079	0.30122
0.452	1.48452	0.30429
0.456	1.42842	0.30909
0.460	1.37233	0.31567
0.464	1.31608	0.32410
0.468	1.25955	0.33453
0.472	1.20262	0.34713
0.476	1.14520	0.36215
0.480	1.08729	0.37988
0.484	1.02892	0.40070
0.488	0.97026	0.42501
0.492	0.91164	0.45328
0.496	0.85356	0.48594
0.500	0.79679	0.52333
0.504	0.74228	0.56552
0.508	0.69110	0.61224
0.512	0.64419	0.66280
0.516	0.60220	0.71619
0.520	0.56538	0.77127
0.524	0.53357	0.82698
0.528	0.50635	0.88247
0.532	0.48316	0.93715
0.536	0.46344	0.99064
0.540	0.44666	1.04275
0.544	0.43235	1.09337
0.548	0.42013	1.14251
0.552	0.40966	1.19020
0.556	0.40068	1.23648
0.560	0.39297	1.28145
0.564	0.38634	1.32517
0.568	0.38066	1.36772
0.572	0.37578	1.40918
0.576	0.37161	1.44962
0.580	0.36807	1.48911
0.584	0.36507	1.52771
0.588	0.36256	1.56548
0.592	0.36048	1.60248
0.596	0.35880	1.63874
0.600	0.35745	1.67432
0.604	0.35643	1.70927
0.608	0.35569	1.74360
0.612	0.35520	1.77738
0.616	0.35496	1.81061
0.620	0.35493	1.84334
0.624	0.35510	1.87560
0.628	0.35545	1.90740
0.632	0.35597	1.93877
0.636	0.35665	1.96974
0.640	0.35748	2.00032
0.644	0.35844	2.03053
0.648	0.35952	2.06040
0.652	0.36073	2.08993
0.656	0.36205	2.11914
0.660	0.36347	2.14805
0.664	0.36499	2.17667
0.668	0.36660	2.20501
0.672	0.36830	2.23309
0.676	0.37008	2.26090
0.680	0.37195	2.28848
0.684	0.37389	2.31582
0.688	0.37590	2.34293
0.692	0.37797	2.36983
0.696	0.38012	2.39651
0.700	0.38232	2.42300
0.704	0.38459	2.44929
0.708	0.38691	2.47539
0.712	0.38929	2.50130
0.716	0.39172	2.52704
0.720	0.39419	2.55261
0.724	0.39672	2.57801
0.728	0.39928	2.60325
0.732	0.40188	2.62833
0.736	0.40453	2.65327
0.740	0.40721	2.67807
0.744	0.40993	2.70273
0.748	0.41268	2.72726
0.752	0.41547	2.75166
0.756	0.41830	2.77593
0.760	0.42115	2.80009
0.764	0.42404	2.82412
0.768	0.42697	2.84804
0.772	0.42992	2.87186
0.776	0.43290	2.89556
0.780	0.43592	2.91916
0.784	0.43896	2.94266
0.788	0.44204	2.96606
0.792	0.44514	2.98936
0.796	0.44827	3.01257
0.800	0.45142	3.03569
0.804	0.45460	3.05872
0.808	0.45781	3.08166
0.812	0.46105	3.10452
0.816	0.46431	3.12729
0.820	0.46760	3.14999
0.824	0.47091	3.17260
0.828	0.47425	3.19514
0.832	0.47761	3.21760
0.836	0.48099	3.23999
0.840	0.48440	3.26231
0.844	0.48783	3.28456
0.848	0.49129	3.30673
0.852	0.49477	3.32884
0.856	0.49827	3.35089
0.860	0.50179	3.37287
0.864	0.50533	3.39478
0.868	0.50890	3.41664
0.872	0.51249	3.43843
0.876	0.51610	3.46016
0.880	0.51973	3.48183
0.884	0.52338	3.50345
0.888	0.52706	3.52501
0.892	0.53075	3.54651
0.896	0.53447	3.56796
0.900	0.53820	3.58936
0.904	0.54196	3.61070
0.908	0.54573	3.63199
0.912	0.54953	3.65323
0.916	0.55334	3.67442
0.920	0.55718	3.69556
0.924	0.56103	3.71666
0.928	0.56491	3.73770
0.932	0.56880	3.75870
0.936	0.57271	3.77965
0.940	0.57664	3.80056
0.944	0.58059	3.82142
0.948	0.58456	3.84224
0.952	0.58855	3.86301
0.956	0.59256	3.88374
0.960	0.59658	3.90443
0.964	0.60062	3.92508
0.968	0.60468	3.94569
0.972	0.60876	3.96625
0.976	0.61286	3.98678
0.980	0.61697	4.00727
0.984	0.62110	4.02772
0.988	0.62525	4.04812
0.992	0.62942	4.06850
0.996	0.63361	4.08883
1.000	0.63781	4.10913
1.004	0.64203	4.12939
1.008	0.64627	4.14962
1.012	0.65052	4.16981
1.016	0.65479	4.18996
1.020	0.65908	4.21008
1.024	0.66339	4.23017
1.028	0.66771	4.25022
1.032	0.67205	4.27024
1.036	0.67640	4.29022
1.040	0.68078	4.31017
1.044	0.68516	4.33009
1.048	0.68957	4.34998
1.052	0.69399	4.36984
1.056	0.69843	4.38966
1.060	0.70288	4.40945
1.064	0.70735	4.42922
1.068	0.71184	4.44895
1.072	0.71634	4.46865
1.076	0.72086	4.48832
1.080	0.72540	4.50796
1.084	0.72995	4.52758
1.088	0.73452	4.54716
1.092	0.73910	4.56672
1.096	0.74370	4.58624
1.100	0.74831	4.60574
1.104	0.75294	4.62521
1.108	0.75759	4.64465
1.112	0.76225	4.66407
1.116	0.76692	4.68346
1.120	0.77161	4.70282
1.124	0.77632	4.72215
1.128	0.78104	4.74146
1.132	0.78578	4.76074
1.136	0.79053	4.77999
1.140	0.79530	4.79922
1.144	0.80008	4.81843
1.148	0.80488	4.83760
1.152	0.80969	4.85676
1.156	0.81452	4.87588
1.160	0.81936	4.89498
1.164	0.82422	4.91406
1.168	0.82909	4.93311
1.172	0.83398	4.95214
1.176	0.83888	4.97115
1.180	0.84380	4.99012
1.184	0.84873	5.00908
1.188	0.85368	5.02801
1.192	0.85864	5.04692
1.196	0.86361	5.06580
1.200	0.86860	5.08466
1.204	0.87360	5.10350
1.208	0.87862	5.12232
1.212	0.88365	5.14111
1.216	0.88870	5.15988
1.220	0.89376	5.17862
1.224	0.89883	5.19735
1.228	0.90392	5.21605
1.232	0.90903	5.23473
1.236	0.91414	5.25338
1.240	0.91927	5.27202
1.244	0.92442	5.29063
1.248	0.92958	5.30922
1.252	0.93475	5.32779
1.256	0.93994	5.34634
1.260	0.94514	5.36487
1.264	0.95035	5.38337
1.268	0.95558	5.40186
1.272	0.96082	5.42032
1.276	0.96607	5.43876
1.280	0.97134	5.45718
1.284	0.97662	5.47558
1.288	0.98192	5.49396
1.292	0.98723	5.51232
1.296	0.99255	5.53066
1.300	0.99788	5.54898
1.304	1.00323	5.56728
1.308	1.00860	5.58556
1.312	1.01397	5.60381
1.316	1.01936	5.62205
1.320	1.02476	5.64027
1.324	1.03018	5.65847
1.328	1.03560	5.67664
1.332	1.04105	5.69480
1.336	1.04650	5.71294
1.340	1.05197	5.73106
1.344	1.05745	5.74916
1.348	1.06294	5.76724
1.352	1.06845	5.78530
1.356	1.07396	5.80334
1.360	1.07950	5.82137
1.364	1.08504	5.83937
1.368	1.09060	5.85735
1.372	1.09617	5.87532
1.376	1.10175	5.89327
1.380	1.10734	5.91119
1.384	1.11295	5.92910
1.388	1.11857	5.94699
1.392	1.12420	5.96487
1.396	1.12985	5.98272
1.400	1.13551	6.00055
1.404	1.14118	6.01837
1.408	1.14686	6.03617
1.412	1.15255	6.05395
1.416	1.15826	6.07171
1.420	1.16398	6.08945
1.424	1.16971	6.10718
1.428	1.17545	6.12488
1.432	1.18121	6.14257
1.436	1.18698	6.16024
1.440	1.19275	6.17790
1.444	1.19855	6.19553
1.448	1.20435	6.21315
1.452	1.21017	6.23075
1.456	1.21599	6.24833
1.460	1.22183	6.26589
1.464	1.22768	6.28344
1.468	1.23355	6.30097
1.472	1.23942	6.31848
1.476	1.24531	6.33597
1.480	1.25121	6.35345
1.484	1.25712	6.37091
1.488	1.26304	6.38835
1.492	1.26897	6.40577
1.496	1.27492	6.42318
1.500	1.28087	6.44057
1.504	1.28684	6.45794
1.508	1.29282	6.47530
1.512	1.29881	6.49263
1.516	1.30481	6.50996
1.520	1.31083	6.52726
1.524	1.31685	6.54455
1.528	1.32289	6.56182
1.532	1.32893	6.57907
1.536	1.33499	6.59631
1.540	1.34106	6.61353
1.544	1.34714	6.63073
1.548	1.35324	6.64791
1.552	1.35934	6.66508
1.556	1.36545	6.68224
1.560	1.37158	6.69937
1.564	1.37771	6.71649
1.568	1.38386	6.73359
1.572	1.39002	6.75068
1.576	1.39619	6.76775
1.580	1.40237	6.78480
1.584	1.40856	6.80184
1.588	1.41476	6.81886
1.592	1.42097	6.83586
1.596	1.42720	6.85285
1.600	1.43343	6.86982
1.604	1.43967	6.88677
1.608	1.44593	6.90371
1.612	1.45219	6.92063
1.616	1.45847	6.93754
1.620	1.46476	6.95443
1.624	1.47105	6.97130
1.628	1.47736	6.98816
1.632	1.48368	7.00500
1.636	1.49001	7.02182
1.640	1.49635	7.03863
1.644	1.50269	7.05542
1.648	1.50905	7.07220
1.652	1.51542	7.08896
1.656	1.52180	7.10571
1.660	1.52819	7.12243
1.664	1.53459	7.13915
1.668	1.54100	7.15584
1.672	1.54742	7.17253
1.676	1.55385	7.18919
1.680	1.56029	7.20584
1.684	1.56674	7.22247
1.688	1.57321	7.23909
1.692	1.57968	7.25569
1.696	1.58616	7.27228
1.700	1.59265	7.28885
