Material: main / MoOCl2 / Ermolaev-beta
Optical constants. G. Ermolaev, A. Toksumakov, A. Slavich, A. Minnekhanov, G. Tselikov, A. Mazitov, I. Kruglov, G. Tikhonowski, M. Mironov, I. Radko, D. Grudinin, A. Vyshnevyy, Z. Sofer, A. Arsenin, K.S. Novoselov, V. Volkov. Giant optical anisotropy and visible-frequency epsilon-near-zero in hyperbolic van der Waals MoOCl2. arXiv:2512.06495 (2025) (Numerical data kindly provided by Georgy Ermolaev)
Comments: Crystallographic c-axis (optical Î²-axis).
wavelength (um)	n	k
0.360	2.10875	0.00000
0.364	2.10384	0.00000
0.368	2.09912	0.00000
0.372	2.09457	0.00000
0.376	2.09018	0.00000
0.380	2.08595	0.00000
0.384	2.08187	0.00000
0.388	2.07793	0.00000
0.392	2.07412	0.00000
0.396	2.07044	0.00000
0.400	2.06687	0.00000
0.404	2.06343	0.00000
0.408	2.06009	0.00000
0.412	2.05686	0.00000
0.416	2.05373	0.00000
0.420	2.05069	0.00000
0.424	2.04774	0.00000
0.428	2.04488	0.00000
0.432	2.04210	0.00000
0.436	2.03940	0.00000
0.440	2.03678	0.00000
0.444	2.03423	0.00000
0.448	2.03175	0.00000
0.452	2.02934	0.00000
0.456	2.02699	0.00000
0.460	2.02470	0.00000
0.464	2.02247	0.00000
0.468	2.02030	0.00000
0.472	2.01818	0.00000
0.476	2.01611	0.00000
0.480	2.01410	0.00000
0.484	2.01213	0.00000
0.488	2.01020	0.00000
0.492	2.00833	0.00000
0.496	2.00649	0.00000
0.500	2.00470	0.00000
0.504	2.00295	0.00000
0.508	2.00123	0.00000
0.512	1.99955	0.00000
0.516	1.99791	0.00000
0.520	1.99630	0.00000
0.524	1.99473	0.00000
0.528	1.99318	0.00000
0.532	1.99167	0.00000
0.536	1.99019	0.00000
0.540	1.98874	0.00000
0.544	1.98731	0.00000
0.548	1.98591	0.00000
0.552	1.98454	0.00000
0.556	1.98319	0.00000
0.560	1.98187	0.00000
0.564	1.98057	0.00000
0.568	1.97929	0.00000
0.572	1.97803	0.00000
0.576	1.97680	0.00000
0.580	1.97559	0.00000
0.584	1.97439	0.00000
0.588	1.97322	0.00000
0.592	1.97206	0.00000
0.596	1.97092	0.00000
0.600	1.96980	0.00000
0.604	1.96870	0.00000
0.608	1.96761	0.00000
0.612	1.96654	0.00000
0.616	1.96549	0.00000
0.620	1.96444	0.00000
0.624	1.96342	0.00000
0.628	1.96240	0.00000
0.632	1.96141	0.00000
0.636	1.96042	0.00000
0.640	1.95945	0.00000
0.644	1.95849	0.00000
0.648	1.95754	0.00000
0.652	1.95660	0.00000
0.656	1.95568	0.00000
0.660	1.95476	0.00000
0.664	1.95386	0.00000
0.668	1.95296	0.00000
0.672	1.95208	0.00000
0.676	1.95121	0.00000
0.680	1.95034	0.00000
0.684	1.94949	0.00000
0.688	1.94864	0.00000
0.692	1.94781	0.00000
0.696	1.94698	0.00000
0.700	1.94616	0.00000
0.704	1.94534	0.00000
0.708	1.94454	0.00000
0.712	1.94374	0.00000
0.716	1.94295	0.00000
0.720	1.94217	0.00000
0.724	1.94139	0.00000
0.728	1.94062	0.00000
0.732	1.93986	0.00000
0.736	1.93910	0.00000
0.740	1.93835	0.00000
0.744	1.93761	0.00000
0.748	1.93687	0.00000
0.752	1.93613	0.00000
0.756	1.93541	0.00000
0.760	1.93468	0.00000
0.764	1.93396	0.00000
0.768	1.93325	0.00000
0.772	1.93254	0.00000
0.776	1.93184	0.00000
0.780	1.93114	0.00000
0.784	1.93045	0.00000
0.788	1.92976	0.00000
0.792	1.92907	0.00000
0.796	1.92839	0.00000
0.800	1.92771	0.00000
0.804	1.92704	0.00000
0.808	1.92637	0.00000
0.812	1.92570	0.00000
0.816	1.92504	0.00000
0.820	1.92438	0.00000
0.824	1.92372	0.00000
0.828	1.92307	0.00000
0.832	1.92242	0.00000
0.836	1.92177	0.00000
0.840	1.92113	0.00000
0.844	1.92048	0.00000
0.848	1.91984	0.00000
0.852	1.91921	0.00000
0.856	1.91857	0.00000
0.860	1.91794	0.00000
0.864	1.91731	0.00000
0.868	1.91669	0.00000
0.872	1.91606	0.00000
0.876	1.91544	0.00000
0.880	1.91482	0.00000
0.884	1.91420	0.00000
0.888	1.91358	0.00000
0.892	1.91297	0.00000
0.896	1.91235	0.00000
0.900	1.91174	0.00000
0.904	1.91113	0.00000
0.908	1.91052	0.00000
0.912	1.90992	0.00000
0.916	1.90931	0.00000
0.920	1.90871	0.00000
0.924	1.90811	0.00000
0.928	1.90751	0.00000
0.932	1.90691	0.00000
0.936	1.90631	0.00000
0.940	1.90571	0.00000
0.944	1.90511	0.00000
0.948	1.90452	0.00000
0.952	1.90392	0.00000
0.956	1.90333	0.00000
0.960	1.90274	0.00000
0.964	1.90215	0.00000
0.968	1.90156	0.00000
0.972	1.90097	0.00000
0.976	1.90038	0.00000
0.980	1.89979	0.00000
0.984	1.89920	0.00000
0.988	1.89861	0.00000
0.992	1.89803	0.00000
0.996	1.89744	0.00000
1.000	1.89685	0.00000
1.004	1.89627	0.00000
1.008	1.89568	0.00000
1.012	1.89510	0.00000
1.016	1.89452	0.00000
1.020	1.89393	0.00000
1.024	1.89335	0.00000
1.028	1.89276	0.00000
1.032	1.89218	0.00000
1.036	1.89160	0.00000
1.040	1.89102	0.00000
1.044	1.89043	0.00000
1.048	1.88985	0.00000
1.052	1.88927	0.00000
1.056	1.88868	0.00000
1.060	1.88810	0.00000
1.064	1.88752	0.00000
1.068	1.88694	0.00000
1.072	1.88635	0.00000
1.076	1.88577	0.00000
1.080	1.88519	0.00000
1.084	1.88460	0.00000
1.088	1.88402	0.00000
1.092	1.88344	0.00000
1.096	1.88285	0.00000
1.100	1.88227	0.00000
1.104	1.88168	0.00000
1.108	1.88110	0.00000
1.112	1.88051	0.00000
1.116	1.87993	0.00000
1.120	1.87934	0.00000
1.124	1.87876	0.00000
1.128	1.87817	0.00000
1.132	1.87758	0.00000
1.136	1.87700	0.00000
1.140	1.87641	0.00000
1.144	1.87582	0.00000
1.148	1.87523	0.00000
1.152	1.87464	0.00000
1.156	1.87405	0.00000
1.160	1.87346	0.00000
1.164	1.87287	0.00000
1.168	1.87228	0.00000
1.172	1.87168	0.00000
1.176	1.87109	0.00000
1.180	1.87050	0.00000
1.184	1.86990	0.00000
1.188	1.86931	0.00000
1.192	1.86871	0.00000
1.196	1.86812	0.00000
1.200	1.86752	0.00000
1.204	1.86692	0.00000
1.208	1.86632	0.00000
1.212	1.86572	0.00000
1.216	1.86512	0.00000
1.220	1.86452	0.00000
1.224	1.86392	0.00000
1.228	1.86331	0.00000
1.232	1.86271	0.00000
1.236	1.86211	0.00000
1.240	1.86150	0.00000
1.244	1.86089	0.00000
1.248	1.86029	0.00000
1.252	1.85968	0.00000
1.256	1.85907	0.00000
1.260	1.85846	0.00000
1.264	1.85785	0.00000
1.268	1.85724	0.00000
1.272	1.85662	0.00000
1.276	1.85601	0.00000
1.280	1.85539	0.00000
1.284	1.85478	0.00000
1.288	1.85416	0.00000
1.292	1.85354	0.00000
1.296	1.85292	0.00000
1.300	1.85230	0.00000
1.304	1.85168	0.00000
1.308	1.85106	0.00000
1.312	1.85043	0.00000
1.316	1.84981	0.00000
1.320	1.84918	0.00000
1.324	1.84855	0.00000
1.328	1.84793	0.00000
1.332	1.84730	0.00000
1.336	1.84667	0.00000
1.340	1.84603	0.00000
1.344	1.84540	0.00000
1.348	1.84477	0.00000
1.352	1.84413	0.00000
1.356	1.84350	0.00000
1.360	1.84286	0.00000
1.364	1.84222	0.00000
1.368	1.84158	0.00000
1.372	1.84094	0.00000
1.376	1.84029	0.00000
1.380	1.83965	0.00000
1.384	1.83900	0.00000
1.388	1.83836	0.00000
1.392	1.83771	0.00000
1.396	1.83706	0.00000
1.400	1.83641	0.00000
1.404	1.83576	0.00000
1.408	1.83511	0.00000
1.412	1.83445	0.00000
1.416	1.83380	0.00000
1.420	1.83314	0.00000
1.424	1.83248	0.00000
1.428	1.83182	0.00000
1.432	1.83116	0.00000
1.436	1.83050	0.00000
1.440	1.82983	0.00000
1.444	1.82917	0.00000
1.448	1.82850	0.00000
1.452	1.82783	0.00000
1.456	1.82716	0.00000
1.460	1.82649	0.00000
1.464	1.82582	0.00000
1.468	1.82514	0.00000
1.472	1.82447	0.00000
1.476	1.82379	0.00000
1.480	1.82311	0.00000
1.484	1.82243	0.00000
1.488	1.82175	0.00000
1.492	1.82107	0.00000
1.496	1.82038	0.00000
1.500	1.81970	0.00000
1.504	1.81901	0.00000
1.508	1.81832	0.00000
1.512	1.81763	0.00000
1.516	1.81694	0.00000
1.520	1.81625	0.00000
1.524	1.81555	0.00000
1.528	1.81486	0.00000
1.532	1.81416	0.00000
1.536	1.81346	0.00000
1.540	1.81276	0.00000
1.544	1.81205	0.00000
1.548	1.81135	0.00000
1.552	1.81064	0.00000
1.556	1.80994	0.00000
1.560	1.80923	0.00000
1.564	1.80852	0.00000
1.568	1.80781	0.00000
1.572	1.80709	0.00000
1.576	1.80638	0.00000
1.580	1.80566	0.00000
1.584	1.80494	0.00000
1.588	1.80422	0.00000
1.592	1.80350	0.00000
1.596	1.80278	0.00000
1.600	1.80205	0.00000
1.604	1.80132	0.00000
1.608	1.80060	0.00000
1.612	1.79987	0.00000
1.616	1.79913	0.00000
1.620	1.79840	0.00000
1.624	1.79766	0.00000
1.628	1.79693	0.00000
1.632	1.79619	0.00000
1.636	1.79545	0.00000
1.640	1.79471	0.00000
1.644	1.79396	0.00000
1.648	1.79322	0.00000
1.652	1.79247	0.00000
1.656	1.79172	0.00000
1.660	1.79097	0.00000
1.664	1.79022	0.00000
1.668	1.78947	0.00000
1.672	1.78871	0.00000
1.676	1.78795	0.00000
1.680	1.78719	0.00000
1.684	1.78643	0.00000
1.688	1.78567	0.00000
1.692	1.78491	0.00000
1.696	1.78414	0.00000
1.700	1.78337	0.00000
