Material: main / MoOCl2 / Ermolaev-gamma
Optical constants. G. Ermolaev, A. Toksumakov, A. Slavich, A. Minnekhanov, G. Tselikov, A. Mazitov, I. Kruglov, G. Tikhonowski, M. Mironov, I. Radko, D. Grudinin, A. Vyshnevyy, Z. Sofer, A. Arsenin, K.S. Novoselov, V. Volkov. Giant optical anisotropy and visible-frequency epsilon-near-zero in hyperbolic van der Waals MoOCl2. arXiv:2512.06495 (2025) (Numerical data kindly provided by Georgy Ermolaev)
Comments: Crystallographic b-axis (optical Î³-axis).
wavelength (um)	n	k
0.360	3.73385	0.70188
0.364	3.65647	0.61433
0.368	3.58470	0.54261
0.372	3.51861	0.48324
0.376	3.45795	0.43360
0.380	3.40234	0.39169
0.384	3.35132	0.35600
0.388	3.30446	0.32535
0.392	3.26132	0.29884
0.396	3.22153	0.27575
0.400	3.18474	0.25551
0.404	3.15065	0.23767
0.408	3.11898	0.22186
0.412	3.08949	0.20778
0.416	3.06196	0.19518
0.420	3.03621	0.18386
0.424	3.01208	0.17365
0.428	2.98940	0.16441
0.432	2.96806	0.15602
0.436	2.94794	0.14838
0.440	2.92892	0.14141
0.444	2.91092	0.13502
0.448	2.89386	0.12916
0.452	2.87766	0.12377
0.456	2.86225	0.11880
0.460	2.84757	0.11421
0.464	2.83357	0.10996
0.468	2.82020	0.10603
0.472	2.80741	0.10238
0.476	2.79515	0.09899
0.480	2.78341	0.09584
0.484	2.77213	0.09291
0.488	2.76129	0.09017
0.492	2.75085	0.08762
0.496	2.74080	0.08524
0.500	2.73111	0.08302
0.504	2.72176	0.08095
0.508	2.71272	0.07901
0.512	2.70397	0.07720
0.516	2.69551	0.07550
0.520	2.68730	0.07392
0.524	2.67935	0.07244
0.528	2.67163	0.07107
0.532	2.66412	0.06978
0.536	2.65683	0.06858
0.540	2.64973	0.06747
0.544	2.64281	0.06643
0.548	2.63608	0.06547
0.552	2.62950	0.06458
0.556	2.62309	0.06375
0.560	2.61683	0.06299
0.564	2.61070	0.06229
0.568	2.60472	0.06165
0.572	2.59886	0.06107
0.576	2.59312	0.06055
0.580	2.58749	0.06007
0.584	2.58198	0.05965
0.588	2.57657	0.05927
0.592	2.57126	0.05895
0.596	2.56605	0.05867
0.600	2.56093	0.05843
0.604	2.55589	0.05824
0.608	2.55093	0.05810
0.612	2.54605	0.05799
0.616	2.54125	0.05793
0.620	2.53652	0.05790
0.624	2.53185	0.05792
0.628	2.52725	0.05797
0.632	2.52272	0.05807
0.636	2.51824	0.05820
0.640	2.51382	0.05837
0.644	2.50945	0.05857
0.648	2.50514	0.05882
0.652	2.50087	0.05910
0.656	2.49665	0.05941
0.660	2.49248	0.05977
0.664	2.48835	0.06016
0.668	2.48427	0.06058
0.672	2.48022	0.06104
0.676	2.47621	0.06154
0.680	2.47224	0.06207
0.684	2.46831	0.06264
0.688	2.46441	0.06325
0.692	2.46054	0.06389
0.696	2.45670	0.06457
0.700	2.45290	0.06528
0.704	2.44913	0.06603
0.708	2.44538	0.06682
0.712	2.44166	0.06765
0.716	2.43797	0.06851
0.720	2.43431	0.06941
0.724	2.43067	0.07036
0.728	2.42706	0.07133
0.732	2.42347	0.07235
0.736	2.41991	0.07341
0.740	2.41637	0.07451
0.744	2.41285	0.07565
0.748	2.40936	0.07683
0.752	2.40589	0.07805
0.756	2.40245	0.07932
0.760	2.39902	0.08062
0.764	2.39562	0.08197
0.768	2.39224	0.08336
0.772	2.38889	0.08480
0.776	2.38556	0.08628
0.780	2.38225	0.08781
0.784	2.37896	0.08938
0.788	2.37570	0.09100
0.792	2.37247	0.09266
0.796	2.36926	0.09438
0.800	2.36607	0.09614
0.804	2.36291	0.09794
0.808	2.35978	0.09980
0.812	2.35668	0.10170
0.816	2.35360	0.10366
0.820	2.35056	0.10566
0.824	2.34754	0.10772
0.828	2.34456	0.10983
0.832	2.34161	0.11198
0.836	2.33870	0.11419
0.840	2.33582	0.11645
0.844	2.33297	0.11876
0.848	2.33017	0.12112
0.852	2.32740	0.12354
0.856	2.32468	0.12600
0.860	2.32200	0.12852
0.864	2.31936	0.13109
0.868	2.31677	0.13371
0.872	2.31423	0.13638
0.876	2.31174	0.13910
0.880	2.30930	0.14187
0.884	2.30692	0.14469
0.888	2.30459	0.14756
0.892	2.30232	0.15048
0.896	2.30011	0.15344
0.900	2.29796	0.15645
0.904	2.29587	0.15950
0.908	2.29385	0.16260
0.912	2.29190	0.16574
0.916	2.29002	0.16892
0.920	2.28822	0.17213
0.924	2.28648	0.17538
0.928	2.28483	0.17867
0.932	2.28325	0.18199
0.936	2.28175	0.18533
0.940	2.28033	0.18871
0.944	2.27900	0.19210
0.948	2.27776	0.19552
0.952	2.27660	0.19896
0.956	2.27552	0.20241
0.960	2.27454	0.20588
0.964	2.27365	0.20935
0.968	2.27285	0.21283
0.972	2.27214	0.21630
0.976	2.27153	0.21978
0.980	2.27101	0.22325
0.984	2.27058	0.22671
0.988	2.27024	0.23016
0.992	2.27000	0.23359
0.996	2.26985	0.23699
1.000	2.26979	0.24037
1.004	2.26982	0.24372
1.008	2.26994	0.24704
1.012	2.27015	0.25032
1.016	2.27045	0.25355
1.020	2.27082	0.25674
1.024	2.27129	0.25988
1.028	2.27183	0.26297
1.032	2.27245	0.26600
1.036	2.27314	0.26897
1.040	2.27390	0.27188
1.044	2.27474	0.27472
1.048	2.27563	0.27749
1.052	2.27659	0.28019
1.056	2.27761	0.28281
1.060	2.27867	0.28536
1.064	2.27979	0.28783
1.068	2.28096	0.29022
1.072	2.28216	0.29253
1.076	2.28340	0.29476
1.080	2.28467	0.29690
1.084	2.28597	0.29896
1.088	2.28730	0.30093
1.092	2.28865	0.30282
1.096	2.29001	0.30462
1.100	2.29138	0.30634
1.104	2.29276	0.30797
1.108	2.29414	0.30953
1.112	2.29552	0.31100
1.116	2.29690	0.31238
1.120	2.29826	0.31369
1.124	2.29962	0.31493
1.128	2.30096	0.31608
1.132	2.30228	0.31716
1.136	2.30359	0.31817
1.140	2.30486	0.31911
1.144	2.30611	0.31999
1.148	2.30733	0.32080
1.152	2.30852	0.32154
1.156	2.30967	0.32223
1.160	2.31079	0.32286
1.164	2.31187	0.32344
1.168	2.31291	0.32396
1.172	2.31391	0.32444
1.176	2.31486	0.32487
1.180	2.31577	0.32526
1.184	2.31664	0.32561
1.188	2.31747	0.32592
1.192	2.31824	0.32620
1.196	2.31898	0.32645
1.200	2.31966	0.32667
1.204	2.32030	0.32686
1.208	2.32090	0.32703
1.212	2.32144	0.32717
1.216	2.32194	0.32730
1.220	2.32240	0.32741
1.224	2.32281	0.32751
1.228	2.32318	0.32760
1.232	2.32350	0.32768
1.236	2.32378	0.32775
1.240	2.32402	0.32781
1.244	2.32422	0.32787
1.248	2.32437	0.32793
1.252	2.32449	0.32799
1.256	2.32457	0.32805
1.260	2.32461	0.32811
1.264	2.32461	0.32818
1.268	2.32459	0.32825
1.272	2.32452	0.32833
1.276	2.32443	0.32842
1.280	2.32430	0.32851
1.284	2.32414	0.32862
1.288	2.32396	0.32874
1.292	2.32375	0.32887
1.296	2.32351	0.32901
1.300	2.32325	0.32917
1.304	2.32296	0.32934
1.308	2.32265	0.32952
1.312	2.32233	0.32972
1.316	2.32198	0.32994
1.320	2.32161	0.33017
1.324	2.32123	0.33041
1.328	2.32083	0.33068
1.332	2.32042	0.33096
1.336	2.31999	0.33126
1.340	2.31955	0.33157
1.344	2.31911	0.33190
1.348	2.31865	0.33225
1.352	2.31818	0.33261
1.356	2.31771	0.33299
1.360	2.31722	0.33339
1.364	2.31674	0.33381
1.368	2.31625	0.33424
1.372	2.31575	0.33468
1.376	2.31526	0.33514
1.380	2.31476	0.33562
1.384	2.31426	0.33611
1.388	2.31376	0.33661
1.392	2.31326	0.33713
1.396	2.31277	0.33767
1.400	2.31228	0.33821
1.404	2.31179	0.33877
1.408	2.31130	0.33934
1.412	2.31082	0.33992
1.416	2.31035	0.34051
1.420	2.30988	0.34111
1.424	2.30942	0.34173
1.428	2.30896	0.34235
1.432	2.30852	0.34298
1.436	2.30808	0.34361
1.440	2.30765	0.34426
1.444	2.30723	0.34491
1.448	2.30682	0.34556
1.452	2.30641	0.34622
1.456	2.30602	0.34689
1.460	2.30564	0.34756
1.464	2.30527	0.34823
1.468	2.30491	0.34890
1.472	2.30457	0.34958
1.476	2.30423	0.35025
1.480	2.30391	0.35093
1.484	2.30359	0.35160
1.488	2.30329	0.35228
1.492	2.30300	0.35295
1.496	2.30273	0.35362
1.500	2.30246	0.35428
1.504	2.30221	0.35494
1.508	2.30197	0.35560
1.512	2.30174	0.35625
1.516	2.30152	0.35689
1.520	2.30131	0.35753
1.524	2.30112	0.35816
1.528	2.30093	0.35878
1.532	2.30076	0.35939
1.536	2.30059	0.36000
1.540	2.30044	0.36059
1.544	2.30030	0.36117
1.548	2.30017	0.36174
1.552	2.30005	0.36230
1.556	2.29993	0.36285
1.560	2.29983	0.36338
1.564	2.29973	0.36390
1.568	2.29964	0.36441
1.572	2.29957	0.36490
1.576	2.29949	0.36538
1.580	2.29943	0.36584
1.584	2.29937	0.36628
1.588	2.29932	0.36671
1.592	2.29927	0.36712
1.596	2.29923	0.36752
1.600	2.29919	0.36790
1.604	2.29916	0.36826
1.608	2.29913	0.36860
1.612	2.29911	0.36892
1.616	2.29908	0.36922
1.620	2.29906	0.36951
1.624	2.29904	0.36977
1.628	2.29902	0.37002
1.632	2.29900	0.37024
1.636	2.29899	0.37045
1.640	2.29897	0.37064
1.644	2.29894	0.37080
1.648	2.29892	0.37095
1.652	2.29890	0.37107
1.656	2.29887	0.37118
1.660	2.29884	0.37126
1.664	2.29880	0.37132
1.668	2.29876	0.37137
1.672	2.29871	0.37139
1.676	2.29866	0.37139
1.680	2.29860	0.37137
1.684	2.29853	0.37133
1.688	2.29846	0.37127
1.692	2.29838	0.37119
1.696	2.29829	0.37109
1.700	2.29819	0.37097
